<?xml version="1.0" encoding="UTF-8"?>

<!-- generated on 04/11/19 13:12:51 by Eclipse SUMO polyconvert Version 1.1.0
<configuration xmlns:xsi="http://www.w3.org/2001/XMLSchema-instance" xsi:noNamespaceSchemaLocation="http://sumo.dlr.de/xsd/polyconvertConfiguration.xsd">

    <input>
        <net-file value="map.net.xml"/>
        <osm-files value="map.osm"/>
        <type-file value="../typemap.xml"/>
    </input>

    <output>
        <output-file value="map.poly.xml"/>
    </output>

    <processing>
        <poi-layer-offset value="5"/>
    </processing>

</configuration>
-->

<additional xmlns:xsi="http://www.w3.org/2001/XMLSchema-instance" xsi:noNamespaceSchemaLocation="http://sumo.dlr.de/xsd/additional_file.xsd">
    <location netOffset="-302296.16,-3461404.26" convBoundary="0.00,-31480.52,48532.86,16721.84" origBoundary="120.921302,30.988758,121.431866,31.426358" projParameter="+proj=utm +zone=51 +ellps=WGS84 +datum=WGS84 +units=m +no_defs"/>

    <poly id="102774611" type="building" color="255,230,230" fill="1" layer="-1.00" shape="26040.039480,2417.053808 26045.230323,2411.324835 26051.300380,2404.627870 26057.903610,2397.345585 25946.259127,2297.146564 25939.730785,2304.350074 25933.586030,2311.137034 25928.395010,2316.854976 26040.039480,2417.053808"/>
    <poly id="135382292" type="landuse" color="194,194,130" fill="1" layer="-3.00" shape="27193.482194,1549.938493 27255.675632,1507.867977 27311.816765,1463.667318 27316.640357,1457.534741 27316.255783,1450.854654 27239.291996,1341.009005 27238.002982,1345.487489 27241.120609,1352.755238 27234.814537,1368.459069 27224.644317,1381.353749 27213.855731,1390.765622 27194.348290,1401.583197 27183.439987,1403.035545 27172.746567,1401.302031 27164.178629,1412.585100 27158.659533,1425.725861 27158.921021,1458.820628 27165.390423,1470.180986 27171.399831,1486.638416 27171.854713,1514.640446 27181.987886,1532.306064 27193.482194,1549.938493"/>
    <poly id="135382294" type="landuse" color="194,194,130" fill="1" layer="-3.00" shape="27262.791726,1271.668460 27266.430640,1279.371291 27281.922548,1282.801163 27282.900124,1278.494069 27298.029328,1280.699036 27314.142771,1279.007098 27326.136738,1272.270269 27333.929645,1266.022989 27341.719144,1259.565090 27347.177222,1250.273124 27354.383593,1240.154427 27357.526798,1228.460574 27366.493686,1208.289381 27363.900367,1188.727111 27368.647162,1178.437654 27375.517725,1169.333472 27382.388850,1160.850238 27387.309908,1150.147692 27389.326840,1134.180903 27386.783189,1117.678232 27338.238119,1117.811621 27335.433361,1131.584611 27332.640497,1154.305773 27329.938947,1171.503417 27325.113649,1187.515799 27315.643369,1209.524791 27302.807959,1229.548141 27285.096161,1251.280664 27262.791726,1271.668460"/>
    <poly id="135382296" type="landuse" color="194,194,130" fill="1" layer="-3.00" shape="27287.424909,1310.266611 27305.381629,1335.312221 27358.015899,1412.953072 27361.810899,1417.371221 27366.053823,1419.464621 27372.030790,1419.855533 27377.105090,1417.433544 27617.721269,1241.761747 27614.461976,1235.139324 27613.144613,1229.649725 27601.668867,1214.311868 27587.130815,1194.521744 27584.035310,1187.430961 27581.225946,1179.193436 27578.465616,1168.105394 27577.279894,1160.163125 27578.793437,1115.463372 27494.122145,1116.381072 27494.693113,1130.454110 27490.764721,1138.956085 27483.552195,1146.358112 27476.659733,1149.419381 27468.867852,1149.867282 27460.280577,1150.006523 27452.609605,1152.038120 27438.003105,1159.171988 27428.946552,1165.018315 27423.794405,1172.043230 27416.445695,1173.393234 27400.846808,1190.966375 27393.084461,1203.799631 27389.602268,1216.319513 27387.482339,1227.109679 27384.916101,1240.912052 27386.961646,1248.430088 27387.196873,1262.929939 27384.020559,1272.584048 27372.349886,1288.097601 27364.392640,1295.367655 27352.378712,1300.873948 27341.395460,1305.343395 27330.922136,1308.374170 27312.194499,1310.929058 27297.302543,1312.190903 27292.844131,1307.972046 27287.424909,1310.266611"/>
    <poly id="135382300" type="water" color="181,209,209" fill="1" layer="-4.00" shape="27502.357419,956.474538 27496.600649,962.633222 27496.402571,970.974923 27494.678392,985.040811 27499.062509,994.073333 27509.518074,995.799968 27512.268696,985.132677 27518.648947,976.313765 27521.927306,957.665353 27511.733948,952.142216 27502.357419,956.474538"/>
    <poly id="135382301" type="water" color="181,209,209" fill="1" layer="-4.00" shape="27116.587474,1453.176942 27130.112441,1459.222150 27139.286090,1466.469093 27146.660705,1479.622149 27150.480471,1494.352082 27152.277643,1524.671969 27164.662504,1544.951129 27176.017428,1562.208797 27253.683586,1669.614187 27262.256303,1681.505952 27307.042943,1722.770777 27319.517245,1735.685916 27330.347826,1748.239651 27340.383436,1762.269974 27348.952612,1775.714239 27352.956739,1786.571370 27356.583641,1803.522178 27358.573259,1824.613369 27358.113330,1847.906560 27355.862314,1858.820853 27351.224426,1877.557971 27348.026794,1899.376482 27346.063647,1920.398768 27346.579011,1935.138033 27347.748968,1952.660962 27351.770149,1971.612379 27359.844896,1986.284400 27371.803965,2002.090940 27379.939740,2009.964768 27384.560628,2016.587202 27385.922972,2023.085100 27384.777562,2051.079828 27402.592016,2049.837153 27404.117567,2038.812666 27404.066433,2025.684781 27403.736772,2014.756926 27396.642102,2001.211083 27380.782145,1982.074753 27369.151816,1968.336406 27365.316328,1940.289448 27365.064238,1922.995569 27366.806598,1905.968711 27369.563530,1885.743007 27373.003380,1872.979832 27376.317527,1853.643254 27377.098542,1840.745813 27376.833752,1824.427925 27375.744984,1804.863408 27372.297397,1788.985264 27367.458320,1773.617593 27362.924072,1759.431440 27348.922045,1740.386963 27328.902277,1716.672144 27312.293800,1701.318112 27292.098206,1683.205873 27278.353918,1670.666211 27245.134825,1624.600854 27193.482194,1549.938493 27181.987886,1532.306064 27171.854713,1514.640446 27171.399831,1486.638416 27165.390423,1470.180986 27158.921021,1458.820628 27158.659533,1425.725861 27164.178629,1412.585100 27172.746567,1401.302031 27183.439987,1403.035545 27194.348290,1401.583197 27213.855731,1390.765622 27224.644317,1381.353749 27234.814537,1368.459069 27241.120609,1352.755238 27238.002982,1345.487489 27239.291996,1341.009005 27249.775436,1330.393478 27255.254584,1326.512272 27258.229792,1329.114105 27268.204126,1321.744688 27268.161114,1319.095249 27272.024571,1315.994297 27285.874809,1306.288848 27292.844131,1307.972046 27297.302543,1312.190903 27312.194499,1310.929058 27330.922136,1308.374170 27341.395460,1305.343395 27352.378712,1300.873948 27364.392640,1295.367655 27372.349886,1288.097601 27384.020559,1272.584048 27387.196873,1262.929939 27386.961646,1248.430088 27384.916101,1240.912052 27387.482339,1227.109679 27389.602268,1216.319513 27393.084461,1203.799631 27400.846808,1190.966375 27416.445695,1173.393234 27423.794405,1172.043230 27428.946552,1165.018315 27438.003105,1159.171988 27452.609605,1152.038120 27460.280577,1150.006523 27468.867852,1149.867282 27476.659733,1149.419381 27483.552195,1146.358112 27490.764721,1138.956085 27494.693113,1130.454110 27494.123582,1116.469756 27488.642788,1075.032474 27493.345741,1063.202506 27502.278439,1052.057985 27538.745976,1030.598489 27545.055255,1017.988504 27543.273485,1008.525696 27561.027740,998.757383 27561.195150,988.520064 27559.382673,977.161633 27564.686800,963.048839 27577.945528,956.757551 27582.743475,951.368462 27590.998266,938.338896 27605.903714,933.174162 27612.915660,923.956986 27611.754041,912.211000 27602.559800,907.813696 27588.292909,911.837069 27575.918245,932.140857 27562.538415,950.941838 27548.564572,953.064402 27531.504825,945.756403 27513.566146,944.151034 27504.183319,948.095362 27494.806609,952.416606 27486.132648,960.141699 27482.043604,969.311582 27482.246506,981.827117 27485.400204,995.436923 27484.949427,1007.574961 27475.513647,1028.219339 27453.920344,1042.596307 27431.602778,1052.826909 27408.320113,1063.439133 27391.602077,1076.606146 27386.692619,1095.658084 27386.783189,1117.678232 27389.326840,1134.180903 27387.309908,1150.147692 27382.388850,1160.850238 27375.517725,1169.333472 27368.647162,1178.437654 27363.900367,1188.727111 27366.493686,1208.289381 27357.526798,1228.460574 27354.383593,1240.154427 27347.177222,1250.273124 27341.719144,1259.565090 27333.929645,1266.022989 27326.136738,1272.270269 27314.142771,1279.007098 27298.029328,1280.699036 27282.900124,1278.494069 27281.922548,1282.801163 27266.430640,1279.371291 27254.651291,1289.353619 27232.090674,1304.511906 27223.149719,1311.598455 27219.877940,1314.190838 27211.151744,1338.605146 27206.076415,1347.414174 27195.164609,1357.449019 27175.216121,1372.188011 27147.405279,1384.781644 27130.842126,1388.088982 27115.530009,1386.341861 27097.575895,1386.677972 27093.461191,1385.447492 27086.632187,1384.194596 27078.746454,1382.958879 27071.754222,1382.795313 27064.039245,1383.863229 27057.087315,1385.007456 27051.437474,1385.997459 27045.282406,1384.611661 27033.452741,1381.521788 27026.336850,1376.680935 27019.572622,1371.213415 27010.539085,1363.809051 27006.114325,1359.323640 27004.660765,1355.433049 26960.731509,1306.160647 26927.227661,1270.257826 26926.030532,1268.669473 26924.472862,1266.576915 26923.777704,1263.649781 26922.974614,1261.112499 26923.325630,1258.689505 26923.656705,1256.211393 26925.418873,1253.898506 26947.699946,1233.865167 26996.826066,1189.255794 26999.408100,1190.511161 27004.298607,1186.739191 27005.277589,1183.696126 27008.136715,1180.323105 27011.908590,1178.033003 27013.812185,1176.216813 27015.093116,1173.002514 27017.688628,1170.986573 27021.758190,1169.434561 27023.360682,1166.669662 27026.324815,1165.069092 27026.605974,1162.447647 27029.317386,1161.117309 27031.613301,1159.416718 27034.121184,1157.867921 27037.488807,1157.070252 27038.423685,1155.413965 27039.048839,1152.864548 27040.764380,1151.195571 27043.064863,1150.947496 27045.873315,1150.314157 27048.347237,1148.433263 27049.931989,1146.333963 27050.448129,1144.107884 27050.829333,1141.196514 27051.908280,1139.615506 27053.751583,1138.776088 27055.778893,1139.297559 27058.149264,1139.247944 27060.178468,1138.128295 27061.589006,1136.442102 27061.074463,1134.665225 27060.526704,1133.188276 27062.029713,1130.746565 27064.186619,1129.281100 27067.003251,1126.806952 27070.184567,1125.091981 27072.857192,1123.717932 27075.254810,1122.414883 27076.916524,1118.019030 27078.465700,1115.487865 27080.802721,1112.799746 27082.944500,1110.403101 27122.725533,1075.493410 27124.538620,1073.379326 27126.653732,1072.857071 27128.163250,1070.814451 27129.898580,1069.189522 27132.490275,1069.280479 27135.438292,1067.857619 27137.921229,1065.943336 27139.633715,1063.498236 27141.607369,1060.716240 27143.678592,1058.664497 27146.442306,1057.033954 27150.375450,1056.459995 27153.961697,1055.048950 27155.532824,1052.694857 27155.712694,1049.698056 27156.186819,1047.228721 27157.374117,1045.867733 27159.443435,1045.457114 27162.576356,1045.450580 27165.001844,1044.102747 27167.036794,1042.162483 27167.618887,1039.890986 27168.004991,1037.278931 27169.474865,1036.312540 27172.099765,1035.515892 27174.010638,1034.730842 27176.556632,1032.593776 27176.967158,1029.726291 27177.370910,1028.200618 27179.348247,1027.403401 27180.570168,1024.655800 27182.418519,1023.539114 27184.037144,1022.936227 27189.681007,1019.806336 27190.798609,1018.257982 27192.171622,1016.017996 27192.718182,1014.490004 27195.365911,1013.925849 27196.688221,1010.322810 27198.850950,1009.799798 27201.047200,1007.235969 27203.774474,1005.705830 27206.809482,1004.946886 27212.590707,999.719064 27210.437575,997.314570 27247.060022,965.472750 27292.360690,926.748456 27339.964537,886.157420 27386.876287,846.908461 27458.222848,787.581595 27471.850677,775.850876 27485.465598,763.322020 27498.565533,749.570718 27526.136296,719.096433 27565.426126,673.673676 27567.244398,673.633127 27570.195452,673.563137 27573.471638,676.515016 27576.404006,677.642879 27580.532929,677.387482 27584.013915,675.346263 27586.253084,672.482443 27587.346003,668.816651 27586.732027,664.424500 27585.117649,662.354944 27582.247079,659.751320 27583.433043,657.714016 27585.781965,656.921951 27589.077562,657.544955 27617.096868,648.852393 27620.767736,647.950217 27668.905575,642.535688 27676.514630,640.183714 27681.394799,640.448438 27684.742019,636.025413 27678.187574,627.050136 27672.539009,619.324273 27660.327802,624.467430 27654.025073,625.157177 27631.809965,627.080410 27613.680865,629.624987 27587.719427,637.197553 27570.144517,643.969001 27564.921232,646.038453 27553.375288,657.557885 27503.747297,713.216525 27486.343833,733.491035 27469.846680,752.098711 27448.995429,769.989736 27427.619178,787.800614 27400.726519,810.147464 27375.036971,832.097869 27275.816133,915.407397 27120.310317,1052.269095 27012.209307,1148.499565 26927.305889,1225.891629 26922.760170,1227.440337 26917.746046,1227.122717 26912.747604,1224.842187 26909.158731,1223.159682 26894.633264,1215.933459 26893.339725,1212.517081 26892.534744,1208.693570 26881.777834,1217.706089 26872.543014,1225.451946 26876.613034,1228.612464 26873.975468,1240.331531 26871.769665,1251.078877 26867.162858,1265.258364 26864.296345,1269.928898 26788.625213,1349.833220 26767.644337,1370.732840 26763.272777,1374.784781 26755.139665,1380.583423 26668.602338,1422.920491 26624.256282,1442.238457 26615.565674,1445.373976 26608.264745,1449.640056 26601.821402,1454.524208 26596.911317,1461.168619 26591.688456,1469.071129 26589.808997,1475.865739 26589.473758,1484.509133 26591.507787,1493.623978 26595.396831,1501.455589 26600.545171,1507.093333 26609.563421,1514.131685 26696.567001,1579.976755 26700.405915,1584.737707 26701.667232,1589.097109 26701.253409,1593.505976 26698.966414,1596.914129 26620.853836,1672.856746 26614.915227,1680.072343 26556.631348,1755.559287 26481.382080,1847.534727 26451.748791,1883.124347 26417.898026,1922.253589 26455.634354,1947.939768 26459.743674,1953.516770 26464.610412,1960.578364 26470.673895,1967.454109 26478.237741,1976.412196 26484.515533,1985.335825 26599.647654,2131.988693 26611.368990,2132.562715 26604.798217,2123.178081 26593.778752,2100.825907 26586.968097,2087.242653 26581.895378,2086.227597 26567.512087,2069.563247 26571.903270,2067.905993 26553.541270,2045.496161 26543.601027,2032.695805 26519.682551,2003.557213 26489.251191,1966.851665 26458.059043,1932.553724 26456.912135,1928.791257 26456.816953,1924.124551 26457.469003,1919.733955 26458.508348,1915.736227 26461.516034,1912.737616 26497.805133,1868.967029 26537.867040,1820.045446 26577.444790,1770.023086 26634.834348,1693.996410 26638.774799,1689.796189 26644.081481,1684.121115 26651.554911,1676.425897 26715.228298,1614.889780 26717.428993,1612.614061 26720.561092,1609.059085 26722.097695,1606.350645 26722.861302,1604.708201 26724.541328,1600.866401 26725.753436,1596.943514 26726.550281,1593.249161 26726.817985,1589.807373 26726.960666,1586.290001 26726.379475,1582.762243 26725.263544,1579.143398 26723.726028,1575.365093 26721.380041,1571.644310 26718.906732,1568.291521 26713.854227,1562.685429 26708.978774,1558.595577 26701.034860,1552.615227 26655.327270,1518.730564 26617.682643,1490.547218 26614.502093,1487.039650 26611.900746,1484.598226 26611.227134,1482.413685 26610.046613,1480.093255 26609.492549,1477.064040 26610.902787,1475.366696 26611.803282,1473.943782 26612.126254,1472.142184 26613.506182,1470.922138 26614.940882,1469.557050 26617.386259,1469.439577 26617.812506,1467.547589 26618.512360,1466.083592 26620.123299,1465.015021 26622.326883,1464.668632 26624.339760,1464.890864 26626.551111,1465.021154 26628.516351,1462.904494 26630.990903,1461.655524 26636.715899,1458.268953 26643.974524,1454.912838 26672.917742,1444.650133 26682.979792,1437.433937 26743.178144,1407.412719 26769.149821,1394.182621 26776.367289,1389.463391 26780.869467,1385.830690 26785.965051,1381.212545 26794.449294,1372.414325 26828.226107,1336.148547 26875.992086,1284.674745 26878.628471,1282.247828 26881.387897,1279.774555 26884.447360,1278.183479 26887.516563,1277.191022 26890.733258,1276.484466 26894.791916,1276.606936 26899.209313,1277.122756 26902.654789,1278.186636 26906.381617,1280.155193 26910.310787,1283.439987 26922.992861,1296.772689 26940.075912,1313.127500 26962.329189,1337.648061 26986.013363,1364.085875 26990.424498,1368.904154 26996.017266,1374.945127 26997.528242,1377.681583 26998.433751,1381.248431 26998.722324,1386.111571 26998.941373,1390.798427 26998.501623,1396.549398 26996.980653,1404.324961 26991.335563,1422.003050 26988.102734,1428.741960 26985.882285,1432.736649 26980.784552,1438.397043 26977.040434,1443.558624 26974.118071,1448.307657 26972.063437,1452.543598 26971.412538,1456.435145 26977.781885,1458.116801 26971.475969,1486.683432 26970.761790,1486.683958 26971.246514,1488.383698 26971.107066,1490.348623 26971.679307,1492.745512 26971.559656,1495.342158 26970.742488,1497.207221 26969.512716,1498.879402 26970.313038,1503.590070 26971.494775,1503.648470 26972.641497,1503.895943 26974.048323,1504.327690 26975.080300,1505.131453 26975.714241,1506.052573 26976.415724,1507.028038 26977.369953,1508.320957 26978.117377,1508.608190 26979.329837,1508.799153 26980.572118,1509.067250 26982.023658,1509.320855 26983.717704,1509.847728 26985.346733,1510.475456 26987.436504,1511.328548 26989.526671,1512.791499 26992.021001,1514.514002 26993.922750,1516.101991 26995.704164,1517.902618 26997.342959,1519.716653 26998.963795,1521.597512 27000.639801,1523.943188 27002.599602,1526.173365 27003.588335,1527.831645 27005.415464,1531.272622 27032.742738,1511.811596 27062.672184,1490.157189 27064.981213,1493.368573 27083.557655,1480.946955 27081.807815,1478.158928 27081.660122,1477.274252 27081.549218,1475.723671 27082.002154,1474.296988 27082.842168,1472.664421 27084.301009,1471.609484 27085.790573,1470.687110 27087.929507,1470.463844 27090.154690,1470.860129 27092.221845,1472.079528 27099.087300,1466.789646 27116.587474,1453.176942"/>
    <poly id="135405204" type="building" color="255,230,230" fill="1" layer="-1.00" shape="27258.313699,1232.809655 27269.597172,1216.914160 27281.833208,1199.861109 27289.396484,1183.571404 27294.206798,1166.638905 27312.207450,1166.801377 27311.464198,1133.326372 27285.859873,1134.651193 27252.224717,1135.197200 27247.834479,1153.952492 27241.819944,1168.853206 27235.193033,1182.399990 27226.599553,1195.058372 27220.844018,1202.448023 27258.313699,1232.809655"/>
    <poly id="135405205" type="building" color="255,230,230" fill="1" layer="-1.00" shape="27337.893582,1029.087595 27323.350561,1013.145562 27303.466270,1028.958789 27296.769011,1038.182174 27293.011233,1047.801393 27293.467747,1064.193775 27272.956638,1065.435952 27271.856412,1034.029190 27275.617776,1024.631674 27308.613490,996.984927 27329.254949,979.119157 27314.897029,962.264877 27271.054032,996.918140 27257.402365,1011.255323 27252.288612,1021.816910 27249.894602,1030.970468 27249.747784,1081.757885 27318.944379,1079.049077 27318.796925,1057.639709 27318.460277,1049.217965 27321.307457,1043.926933 27324.578436,1040.691474 27337.893582,1029.087595"/>
    <poly id="135406216" type="leisure" color="207,245,201" fill="1" layer="-2.00" shape="27403.015112,1722.022755 27422.166850,1749.178112 27452.926688,1792.811134 27477.779848,1828.057370 27486.379430,1822.839409 27498.420738,1824.928365 27506.584460,1824.540957 27516.504985,1822.095887 27525.879636,1817.109339 27532.938317,1811.406332 27539.959805,1803.408629 27545.626244,1791.119498 27547.508189,1780.920902 27553.817730,1775.995157 27479.170546,1667.784794 27476.227337,1669.495787 27465.408996,1663.561503 27449.852345,1660.797752 27437.329736,1664.271953 27425.689483,1671.069474 27415.876190,1680.132677 27410.391341,1688.349479 27406.429664,1696.541574 27405.273613,1703.934139 27404.382870,1711.832468 27406.047378,1719.933288 27403.015112,1722.022755"/>
    <poly id="135406217" type="leisure" color="207,245,201" fill="1" layer="-2.00" shape="27417.624433,1718.048942 27476.658909,1806.497457 27531.838865,1770.019960 27472.804692,1681.571151 27417.624433,1718.048942"/>
    <poly id="135406217#1" type="sport" color="79,230,125" fill="1" layer="-2.00" shape="27417.624433,1718.048942 27476.658909,1806.497457 27531.838865,1770.019960 27472.804692,1681.571151 27417.624433,1718.048942"/>
    <poly id="135485398" type="water" color="181,209,209" fill="1" layer="-4.00" shape="27581.793316,660.545948 27583.295968,661.009494 27584.191088,662.181452 27585.243750,663.084736 27585.486794,663.978960 27586.323894,664.508731 27586.756267,667.096413 27585.112060,667.300465 27585.387078,668.404850 27586.321183,668.456248 27586.398778,670.306755 27585.609272,672.126955 27582.707785,675.256539 27581.522553,674.399756 27579.600988,675.118369 27580.066598,676.818440 27576.699508,677.072582 27574.105752,676.271886 27570.680648,673.533099 27570.249345,672.774987 27568.877649,672.165172 27570.082477,667.765730 27576.071012,661.791850 27578.690102,661.804859 27578.936377,663.486308 27580.932311,663.243292 27580.668434,661.063151 27581.793316,660.545948"/>
    <poly id="135485623" type="water" color="181,209,209" fill="1" layer="-4.00" shape="27786.267041,1775.611738 27799.812071,1777.654521 27814.694663,1781.738116 27837.413997,1781.115395 27857.839089,1780.529845 27879.445300,1774.081636 27898.602080,1761.607738 27915.184559,1725.967488 27900.223170,1732.319212 27882.647372,1735.397821 27858.850487,1732.988562 27836.700510,1721.138645 27825.232931,1706.842763 27818.981282,1690.643976 27820.195606,1675.654970 27820.559600,1671.080655 27801.511122,1668.483786 27732.114532,1662.710247 27729.628965,1680.336721 27722.875576,1690.791569 27711.913414,1698.897306 27724.055526,1742.488835 27744.370971,1756.297608 27763.928437,1765.638970 27786.267041,1775.611738"/>
    <poly id="163745282" type="building" color="255,230,230" fill="1" layer="-1.00" shape="25375.230452,532.237940 25453.959596,456.675242 25396.813032,397.723500 25318.065301,473.320187 25361.533386,518.169581 25337.981475,540.777575 25302.476620,504.147222 25274.433808,531.064919 25316.109573,574.058502 25367.732289,524.499208 25375.230452,532.237940"/>
    <poly id="164053726" type="building" color="255,230,230" fill="1" layer="-1.00" shape="29261.162333,2975.348794 29232.563301,2973.102408 29233.181328,2965.341734 29261.780558,2967.599208 29261.162333,2975.348794"/>
    <poly id="164053738" type="building" color="255,230,230" fill="1" layer="-1.00" shape="29275.213804,2969.324019 29262.954903,2968.988574 29263.800415,2938.626215 29276.068870,2938.961510 29275.213804,2969.324019"/>
    <poly id="164053749" type="building" color="255,230,230" fill="1" layer="-1.00" shape="29287.232470,2946.388913 29277.259240,2944.907928 29278.178966,2938.739136 29288.161720,2940.219969 29287.232470,2946.388913"/>
    <poly id="164053751" type="building" color="255,230,230" fill="1" layer="-1.00" shape="29331.801082,3050.857575 29306.352722,3056.854518 29302.269374,3040.908496 29298.720409,3042.240618 29282.906410,2979.978401 29286.981673,2979.402922 29286.410554,2975.852732 29284.251342,2968.269703 29277.384299,2969.899036 29276.727582,2961.016730 29303.931315,2954.037959 29303.878562,2950.157887 29292.618198,2948.564486 29294.024177,2940.658111 29308.596741,2942.774949 29312.992002,2944.933164 29313.794228,2947.459518 29317.840935,2961.121934 29329.284988,2958.144019 29338.528376,2993.057007 29334.208391,2994.401488 29337.224303,3007.315356 29330.095921,3009.270411 29335.574613,3031.481137 29327.687794,3033.636867 29331.801082,3050.857575"/>
    <poly id="164053752" type="building" color="255,230,230" fill="1" layer="-1.00" shape="29260.665621,2962.793679 29241.503538,2961.837255 29242.550660,2931.582537 29262.271648,2935.324256 29260.665621,2962.793679"/>
    <poly id="164053769" type="building" color="255,230,230" fill="1" layer="-1.00" shape="29239.448863,2961.360181 29231.020855,2961.240473 29232.817151,2930.208627 29241.000022,2931.662875 29239.448863,2961.360181"/>
    <poly id="164053775" type="building" color="255,230,230" fill="1" layer="-1.00" shape="29296.343452,3037.699286 29282.352637,3040.973157 29268.719738,2987.069817 29270.501034,2986.531158 29269.411551,2983.310852 29254.923305,2987.036274 29252.739511,2977.923453 29280.431299,2969.916655 29283.138854,2978.444479 29277.551572,2980.319390 29278.109083,2983.614765 29281.924584,2982.278359 29296.343452,3037.699286"/>
    <poly id="164053784" type="building" color="255,230,230" fill="1" layer="-1.00" shape="29266.832025,3044.437930 29191.891613,3062.739513 29176.951205,3002.148816 29251.892038,2983.847145 29266.832025,3044.437930"/>
    <poly id="171748256" type="building" color="255,230,230" fill="1" layer="-1.00" shape="25761.872974,894.560420 25782.108124,916.572463 25832.326795,870.819631 25812.091857,848.818579 25761.872974,894.560420"/>
    <poly id="171748259" type="building" color="255,230,230" fill="1" layer="-1.00" shape="25696.765591,955.150018 25717.010117,977.150697 25767.228214,931.397524 25746.983717,909.396751 25696.765591,955.150018"/>
    <poly id="171789642" type="water" color="181,209,209" fill="0" layer="-4.00" shape="27850.139931,558.236040 27827.084231,563.543316 27805.815199,569.797516 27788.299346,576.113004 27766.204665,586.073082 27733.742691,603.308671 27721.577366,611.877326 27666.105335,633.688133 27643.380967,636.506660 27615.734752,640.014820 27586.291098,646.612573 27570.425257,654.831092 27552.262427,673.509961 27508.737232,722.605152 27485.742139,747.483280 27458.473135,773.650484 27213.173019,982.212055 26931.680796,1236.088379 26901.336819,1249.854883 26801.232718,1352.145058 26770.313501,1381.434109 26751.404360,1391.544217 26698.292346,1418.744358 26668.895351,1431.553642 26619.453089,1453.105825 26606.674500,1462.495349 26600.085550,1473.635780 26601.552615,1487.694243 26610.378202,1501.022907 26704.439768,1569.314453 26710.160025,1580.254310 26712.206236,1592.462660 26704.439458,1607.292498 26680.597224,1630.201613 26639.597907,1669.601734 26623.884519,1687.621569 26567.858854,1762.029327 26495.412452,1848.958054 26384.204023,1973.888233 26314.116144,2054.038105 26256.308521,2132.768171 26164.232567,2260.437895 26088.592434,2353.110520"/>
    <poly id="171789644" type="water" color="181,209,209" fill="0" layer="-4.00" shape="28040.348793,766.339380 28080.656201,749.011262 28114.171777,731.560140 28233.834766,671.702578 28257.212967,661.600813 28281.642118,653.478053 28294.396997,650.145354 28306.936126,647.015742 28320.086326,642.213034 28335.290502,634.860158 28457.012810,574.417654 28535.173023,539.737968 28574.965229,522.253825 28612.981991,505.097815 28635.192918,496.390686 28650.643904,491.329605 28662.872983,489.037052"/>
    <poly id="171789646" type="water" color="181,209,209" fill="0" layer="-4.00" shape="28662.872983,489.037052 28681.887779,487.655422 28697.230316,488.872155 28709.002544,490.146364 28717.815424,489.793868 28728.706115,488.365643 28741.281993,486.910316 28757.857724,486.643636 28801.152165,489.706156 28863.704954,489.953242 28899.366038,488.548328 28913.637722,488.318930 28926.862573,488.727321 28953.338713,490.597119 28978.571631,493.329670 28994.545225,494.115338 29017.218248,494.593825 29039.452054,493.815348"/>
    <poly id="171789654" type="water" color="181,209,209" fill="0" layer="-4.00" shape="28008.215469,459.743771 28045.123034,444.111610 28063.020049,434.840909 28071.281439,428.642121 28075.805005,423.923025 28081.192080,419.600255 28125.969206,394.127878 28143.447451,384.864086 28348.944727,293.406874 28355.700828,296.014577 28360.210044,302.206786 28382.774789,373.906160 28390.782025,406.864706 28396.003016,431.219261 28404.683942,479.978945 28408.228146,497.796232 28411.220061,507.938196 28414.759499,516.008900 28422.533142,528.579750 28426.465183,533.240004 28431.425516,537.296002 28438.932665,542.198019 28445.133113,549.338772 28450.000596,557.088696 28453.692143,565.145871 28457.012810,574.417654 28462.047475,590.769448 28464.968407,602.420583 28466.410230,613.884878 28468.192033,646.444826 28470.166614,664.376133 28473.036840,686.473314 28473.850288,697.947737 28473.008293,710.701823 28470.783271,715.638734 28466.677433,719.097942 28459.884566,721.280946 28448.047974,723.090629 28437.061191,723.267727 28427.545377,721.946372 28417.579718,721.075812 28397.717303,722.427260 28363.343153,726.230435 28334.755224,729.796245 28328.878543,724.424472 28323.777901,721.113708 28317.377630,719.886346 28308.018728,719.438548 28297.803200,720.789804 28280.075841,725.799456"/>