<?xml version="1.0" encoding="UTF-8"?>

<!-- generated on 04/11/19 00:22:03 by Eclipse SUMO polyconvert Version 1.1.0
<configuration xmlns:xsi="http://www.w3.org/2001/XMLSchema-instance" xsi:noNamespaceSchemaLocation="http://sumo.dlr.de/xsd/polyconvertConfiguration.xsd">

    <input>
        <net-file value="tongji.net.xml"/>
        <osm-files value="tongji.osm"/>
        <type-file value="typemap.xml"/>
    </input>

    <output>
        <output-file value="tongji.poly.xml"/>
    </output>

    <processing>
        <poi-layer-offset value="5"/>
    </processing>

</configuration>
-->

<additional xmlns:xsi="http://www.w3.org/2001/XMLSchema-instance" xsi:noNamespaceSchemaLocation="http://sumo.dlr.de/xsd/additional_file.xsd">
    <location netOffset="-329178.19,-3462434.84" convBoundary="-464.13,-411.26,802.71,1101.98" origBoundary="121.200428,31.280122,121.213951,31.293614" projParameter="+proj=utm +zone=51 +ellps=WGS84 +datum=WGS84 +units=m +no_defs"/>

    <poly id="135382294" type="landuse" color="194,194,130" fill="1" layer="-3.00" shape="380.761726,241.088460 384.400640,248.791291 399.892548,252.221163 400.870124,247.914069 415.999328,250.119036 432.112771,248.427098 444.106738,241.690269 451.899645,235.442989 459.689144,228.985090 465.147222,219.693124 472.353593,209.574427 475.496798,197.880574 484.463686,177.709381 481.870367,158.147111 486.617162,147.857654 493.487725,138.753472 500.358850,130.270238 505.279908,119.567692 507.296840,103.600903 504.753189,87.098232 456.208119,87.231621 453.403361,101.004611 450.610497,123.725773 447.908947,140.923417 443.083649,156.935799 433.613369,178.944791 420.777959,198.968141 403.066161,220.700664 380.761726,241.088460"/>
    <poly id="135382301" type="water" color="181,209,209" fill="1" layer="-4.00" shape="234.557474,422.596942 248.082441,428.642150 257.256090,435.889093 264.630705,449.042149 268.450471,463.772082 270.247643,494.091969 282.632504,514.371129 293.987428,531.628797 371.653586,639.034187 380.226303,650.925952 425.012943,692.190777 437.487245,705.105916 448.317826,717.659651 458.353436,731.689974 466.922612,745.134239 470.926739,755.991370 474.553641,772.942178 476.543259,794.033369 476.083330,817.326560 473.832314,828.240853 469.194426,846.977971 465.996794,868.796482 464.033647,889.818768 464.549011,904.558033 465.718968,922.080962 469.740149,941.032379 477.814896,955.704400 489.773965,971.510940 497.909740,979.384768 502.530628,986.007202 503.892972,992.505100 502.747562,1020.499828 520.562016,1019.257153 522.087567,1008.232666 522.036433,995.104781 521.706772,984.176926 514.612102,970.631083 498.752145,951.494753 487.121816,937.756406 483.286328,909.709448 483.034238,892.415569 484.776598,875.388711 487.533530,855.163007 490.973380,842.399832 494.287527,823.063254 495.068542,810.165813 494.803752,793.847925 493.714984,774.283408 490.267397,758.405264 485.428320,743.037593 480.894072,728.851440 466.892045,709.806963 446.872277,686.092144 430.263800,670.738112 410.068206,652.625873 396.323918,640.086211 363.104825,594.020854 311.452194,519.358493 299.957886,501.726064 289.824713,484.060446 289.369831,456.058416 283.360423,439.600986 276.891021,428.240628 276.629533,395.145861 282.148629,382.005100 290.716567,370.722031 301.409987,372.455545 312.318290,371.003197 331.825731,360.185622 342.614317,350.773749 352.784537,337.879069 359.090609,322.175238 355.972982,314.907489 357.261996,310.429005 367.745436,299.813478 373.224584,295.932272 376.199792,298.534105 386.174126,291.164688 386.131114,288.515249 389.994571,285.414297 403.844809,275.708848 410.814131,277.392046 415.272543,281.610903 430.164499,280.349058 448.892136,277.794170 459.365460,274.763395 470.348712,270.293948 482.362640,264.787655 490.319886,257.517601 501.990559,242.004048 505.166873,232.349939 504.931646,217.850088 502.886101,210.332052 505.452339,196.529679 507.572268,185.739513 511.054461,173.219631 518.816808,160.386375 534.415695,142.813234 541.764405,141.463230 546.916552,134.438315 555.973105,128.591988 570.579605,121.458120 578.250577,119.426523 586.837852,119.287282 594.629733,118.839381 601.522195,115.778112 608.734721,108.376085 612.663113,99.874110 612.093582,85.889756 606.612788,44.452474 611.315741,32.622506 620.248439,21.477985 656.715976,0.018489 663.025255,-12.591496 661.243485,-22.054304 678.997740,-31.822617 679.165150,-42.059936 677.352673,-53.418367 682.656800,-67.531161 695.915528,-73.822449 700.713475,-79.211538 708.968266,-92.241104 723.873714,-97.405838 730.885660,-106.623014 729.724041,-118.369000 720.529800,-122.766304 706.262909,-118.742931 693.888245,-98.439143 680.508415,-79.638162 666.534572,-77.515598 649.474825,-84.823597 631.536146,-86.428966 622.153319,-82.484638 612.776609,-78.163394 604.102648,-70.438301 600.013604,-61.268418 600.216506,-48.752883 603.370204,-35.143077 602.919427,-23.005039 593.483647,-2.360661 571.890344,12.016307 549.572778,22.246909 526.290113,32.859133 509.572077,46.026146 504.662619,65.078084 504.753189,87.098232 507.296840,103.600903 505.279908,119.567692 500.358850,130.270238 493.487725,138.753472 486.617162,147.857654 481.870367,158.147111 484.463686,177.709381 475.496798,197.880574 472.353593,209.574427 465.147222,219.693124 459.689144,228.985090 451.899645,235.442989 444.106738,241.690269 432.112771,248.427098 415.999328,250.119036 400.870124,247.914069 399.892548,252.221163 384.400640,248.791291 372.621291,258.773619 350.060674,273.931906 341.119719,281.018455 337.847940,283.610838 329.121744,308.025146 324.046415,316.834174 313.134609,326.869019 293.186121,341.608011 265.375279,354.201644 248.812126,357.508982 233.500009,355.761861 215.545895,356.097972 211.431191,354.867492 204.602187,353.614596 196.716454,352.378879 189.724222,352.215313 182.009245,353.283229 175.057315,354.427456 169.407474,355.417459 163.252406,354.031661 151.422741,350.941788 144.306850,346.100935 137.542622,340.633415 128.509085,333.229051 124.084325,328.743640 122.630765,324.853049 78.701509,275.580647 45.197661,239.677826 44.000532,238.089473 42.442862,235.996915 41.747704,233.069781 40.944614,230.532499 41.295630,228.109505 41.626705,225.631393 43.388873,223.318506 65.669946,203.285167 114.796066,158.675794 117.378100,159.931161 122.268607,156.159191 123.247589,153.116126 126.106715,149.743105 129.878590,147.453003 131.782185,145.636813 133.063116,142.422514 135.658628,140.406573 139.728190,138.854561 141.330682,136.089662 144.294815,134.489092 144.575974,131.867647 147.287386,130.537309 149.583301,128.836718 152.091184,127.287921 155.458807,126.490252 156.393685,124.833965 157.018839,122.284548 158.734380,120.615571 161.034863,120.367496 163.843315,119.734157 166.317237,117.853263 167.901989,115.753963 168.418129,113.527884 168.799333,110.616514 169.878280,109.035506 171.721583,108.196088 173.748893,108.717559 176.119264,108.667944 178.148468,107.548295 179.559006,105.862102 179.044463,104.085225 178.496704,102.608276 179.999713,100.166565 182.156619,98.701100 184.973251,96.226952 188.154567,94.511981 190.827192,93.137932 193.224810,91.834883 194.886524,87.439030 196.435700,84.907865 198.772721,82.219746 200.914500,79.823101 240.695533,44.913410 242.508620,42.799326 244.623732,42.277071 246.133250,40.234451 247.868580,38.609522 250.460275,38.700479 253.408292,37.277619 255.891229,35.363336 257.603715,32.918236 259.577369,30.136240 261.648592,28.084497 264.412306,26.453954 268.345450,25.879995 271.931697,24.468950 273.502824,22.114857 273.682694,19.118056 274.156819,16.648721 275.344117,15.287733 277.413435,14.877114 280.546356,14.870580 282.971844,13.522747 285.006794,11.582483 285.588887,9.310986 285.974991,6.698931 287.444865,5.732540 290.069765,4.935892 291.980638,4.150842 294.526632,2.013776 294.937158,-0.853709 295.340910,-2.379382 297.318247,-3.176599 298.540168,-5.924200 300.388519,-7.040886 302.007144,-7.643773 307.651007,-10.773664 308.768609,-12.322018 310.141622,-14.562004 310.688182,-16.089996 313.335911,-16.654151 314.658221,-20.257190 316.820950,-20.780202 319.017200,-23.344031 321.744474,-24.874170 324.779482,-25.633114 330.560707,-30.860936 328.407575,-33.265430 365.030022,-65.107250 410.330690,-103.831544 457.934537,-144.422580 504.846287,-183.671539 576.192848,-242.998405 589.820677,-254.729124 603.435598,-267.257980 616.535533,-281.009282 644.106296,-311.483567 683.396126,-356.906324 685.214398,-356.946873 688.165452,-357.016863 691.441638,-354.064984 694.374006,-352.937121 698.502929,-353.192518 701.983915,-355.233737 704.223084,-358.097557 705.316003,-361.763349 704.702027,-366.155500 703.087649,-368.225056 700.217079,-370.828680 701.403043,-372.865984 703.751965,-373.658049 707.047562,-373.035045 735.066868,-381.727607 738.737736,-382.629783 786.875575,-388.044312 794.484630,-390.396286 799.364799,-390.131562 802.712019,-394.554587 796.157574,-403.529864 790.509009,-411.255727 778.297802,-406.112570 771.995073,-405.422823 749.779965,-403.499590 731.650865,-400.955013 705.689427,-393.382447 688.114517,-386.610999 682.891232,-384.541547 671.345288,-373.022115 621.717297,-317.363475 604.313833,-297.088965 587.816680,-278.481289 566.965429,-260.590264 545.589178,-242.779386 518.696519,-220.432536 493.006971,-198.482131 393.786133,-115.172603 238.280317,21.689095 130.179307,117.919565 45.275889,195.311629 40.730170,196.860337 35.716046,196.542717 30.717604,194.262187 27.128731,192.579682 12.603264,185.353459 11.309725,181.937081 10.504744,178.113570 -0.252166,187.126089 -9.486986,194.871946 -5.416966,198.032464 -8.054532,209.751531 -10.260335,220.498877 -14.867142,234.678364 -17.733655,239.348898 -93.404787,319.253220 -114.385663,340.152840 -118.757223,344.204781 -126.890335,350.003423 -213.427662,392.340491 -257.773718,411.658457 -266.464326,414.793976 -273.765255,419.060056 -280.208598,423.944208 -285.118683,430.588619 -290.341544,438.491129 -292.221003,445.285739 -292.556242,453.929133 -290.522213,463.043978 -286.633169,470.875589 -281.484829,476.513333 -272.466579,483.551685 -185.462999,549.396755 -181.624085,554.157707 -180.362768,558.517109 -180.776591,562.925976 -183.063586,566.334129 -261.176164,642.276746 -267.114773,649.492343 -325.398652,724.979287 -400.647920,816.954727 -430.281209,852.544347 -464.131974,891.673589 -426.395646,917.359768 -422.286326,922.936770 -417.419588,929.998364 -411.356105,936.874109 -403.792259,945.832196 -397.514467,954.755825 -282.382346,1101.408693 -270.661010,1101.982715 -277.231783,1092.598081 -288.251248,1070.245907 -295.061903,1056.662653 -300.134622,1055.647597 -314.517913,1038.983247 -310.126730,1037.325993 -328.488730,1014.916161 -338.428973,1002.115805 -362.347449,972.977213 -392.778809,936.271665 -423.970957,901.973724 -425.117865,898.211257 -425.213047,893.544551 -424.560997,889.153955 -423.521652,885.156227 -420.513966,882.157616 -384.224867,838.387029 -344.162960,789.465446 -304.585210,739.443086 -247.195652,663.416410 -243.255201,659.216189 -237.948519,653.541115 -230.475089,645.845897 -166.801702,584.309780 -164.601007,582.034061 -161.468908,578.479085 -159.932305,575.770645 -159.168698,574.128201 -157.488672,570.286401 -156.276564,566.363514 -155.479719,562.669161 -155.212015,559.227373 -155.069334,555.710001 -155.650525,552.182243 -156.766456,548.563398 -158.303972,544.785093 -160.649959,541.064310 -163.123268,537.711521 -168.175773,532.105429 -173.051226,528.015577 -180.995140,522.035227 -226.702730,488.150564 -264.347357,459.967218 -267.527907,456.459650 -270.129254,454.018226 -270.802866,451.833685 -271.983387,449.513255 -272.537451,446.484040 -271.127213,444.786696 -270.226718,443.363782 -269.903746,441.562184 -268.523818,440.342138 -267.089118,438.977050 -264.643741,438.859577 -264.217494,436.967589 -263.517640,435.503592 -261.906701,434.435021 -259.703117,434.088632 -257.690240,434.310864 -255.478889,434.441154 -253.513649,432.324494 -251.039097,431.075524 -245.314101,427.688953 -238.055476,424.332838 -209.112258,414.070133 -199.050208,406.853937 -138.851856,376.832719 -112.880179,363.602621 -105.662711,358.883391 -101.160533,355.250690 -96.064949,350.632545 -87.580706,341.834325 -53.803893,305.568547 -6.037914,254.094745 -3.401529,251.667828 -0.642103,249.194555 2.417360,247.603479 5.486563,246.611022 8.703258,245.904466 12.761916,246.026936 17.179313,246.542756 20.624789,247.606636 24.351617,249.575193 28.280787,252.859987 40.962861,266.192689 58.045912,282.547500 80.299189,307.068061 103.983363,333.505875 108.394498,338.324154 113.987266,344.365127 115.498242,347.101583 116.403751,350.668431 116.692324,355.531571 116.911373,360.218427 116.471623,365.969398 114.950653,373.744961 109.305563,391.423050 106.072734,398.161960 103.852285,402.156649 98.754552,407.817043 95.010434,412.978624 92.088071,417.727657 90.033437,421.963598 89.382538,425.855145 95.751885,427.536801 89.445969,456.103432 88.731790,456.103958 89.216514,457.803698 89.077066,459.768623 89.649307,462.165512 89.529656,464.762158 88.712488,466.627221 87.482716,468.299402 88.283038,473.010070 89.464775,473.068470 90.611497,473.315943 92.018323,473.747690 93.050300,474.551453 93.684241,475.472573 94.385724,476.448038 95.339953,477.740957 96.087377,478.028190 97.299837,478.219153 98.542118,478.487250 99.993658,478.740855 101.687704,479.267728 103.316733,479.895456 105.406504,480.748548 107.496671,482.211499 109.991001,483.934002 111.892750,485.521991 113.674164,487.322618 115.312959,489.136653 116.933795,491.017512 118.609801,493.363188 120.569602,495.593365 121.558335,497.251645 123.385464,500.692622 150.712738,481.231596 180.642184,459.577189 182.951213,462.788573 201.527655,450.366955 199.777815,447.578928 199.630122,446.694252 199.519218,445.143671 199.972154,443.716988 200.812168,442.084421 202.271009,441.029484 203.760573,440.107110 205.899507,439.883844 208.124690,440.280129 210.191845,441.499528 217.057300,436.209646 234.557474,422.596942"/>
    <poly id="135405204" type="building" color="255,230,230" fill="1" layer="-1.00" shape="376.283699,202.229655 387.567172,186.334160 399.803208,169.281109 407.366484,152.991404 412.176798,136.058905 430.177450,136.221377 429.434198,102.746372 403.829873,104.071193 370.194717,104.617200 365.804479,123.372492 359.789944,138.273206 353.163033,151.819990 344.569553,164.478372 338.814018,171.868023 376.283699,202.229655"/>
    <poly id="135405205" type="building" color="255,230,230" fill="1" layer="-1.00" shape="455.863582,-1.492405 441.320561,-17.434438 421.436270,-1.621211 414.739011,7.602174 410.981233,17.221393 411.437747,33.613775 390.926638,34.855952 389.826412,3.449190 393.587776,-5.948326 426.583490,-33.595073 447.224949,-51.460843 432.867029,-68.315123 389.024032,-33.661860 375.372365,-19.324677 370.258612,-8.763090 367.864602,0.390468 367.717784,51.177885 436.914379,48.469077 436.766925,27.059709 436.430277,18.637965 439.277457,13.346933 442.548436,10.111474 455.863582,-1.492405"/>
    <poly id="263913983" type="landuse" color="194,194,130" fill="1" layer="-3.00" shape="345.748068,258.755328 342.813884,258.681001 310.606174,202.264898 314.276742,199.599501 315.684917,201.871939 323.171921,196.727284 321.344677,194.450563 324.622963,192.257255 365.408448,242.679428 364.558171,244.855478 345.748068,258.755328"/>
    <poly id="263913988" type="building" color="255,230,230" fill="1" layer="-1.00" shape="209.238228,235.746649 209.111375,212.119226 147.576998,213.374424 141.201203,214.232090 134.842171,216.120713 129.536013,219.511340 116.185370,230.650537 110.013097,228.211642 104.880210,227.031022 101.048951,226.838288 96.211290,227.415935 91.397460,230.044562 88.116201,232.637179 85.622663,236.237125 83.911293,241.088436 83.219990,245.424177 83.807129,250.493141 84.905617,254.799775 87.013240,259.089997 89.366693,262.101050 91.702333,264.602323 95.583154,267.843573 99.705839,269.561773 104.323390,271.260838 109.948566,271.679437 115.297197,270.317294 119.597105,267.708122 123.863851,263.059215 126.092239,258.964609 126.793079,254.628717 126.441049,248.790825 128.511347,250.786352 139.853494,241.453975 143.387662,238.602229 145.665443,237.545061 149.493782,236.972756 209.238228,235.746649"/>
    <poly id="263925946" type="building" color="255,230,230" fill="1" layer="-1.00" shape="252.443753,262.776812 252.342148,214.321953 260.617811,216.693493 260.651129,218.744314 274.326877,216.470786 273.825609,213.751171 279.968759,212.054644 285.922769,210.438811 292.247864,208.218179 297.700322,205.623629 316.010187,249.458249 284.164391,259.300882 277.338447,233.032354 261.602581,235.106491 261.139426,262.868395 252.443753,262.776812"/>
    <poly id="263926504" type="building" color="255,230,230" fill="1" layer="-1.00" shape="392.184773,91.830083 377.895533,92.106399 377.317276,61.179051 391.597039,60.902890 392.184773,91.830083"/>
    <poly id="263926504#1" type="historic" color="128,255,128" fill="1" layer="-1.00" shape="392.184773,91.830083 377.895533,92.106399 377.317276,61.179051 391.597039,60.902890 392.184773,91.830083"/>
    <poly id="263926505" type="building" color="255,230,230" fill="1" layer="-1.00" shape="211.723312,231.038027 211.574110,217.168803 240.822644,216.848776 240.971807,230.717999 211.723312,231.038027"/>
    <poly id="263926505#1" type="historic" color="128,255,128" fill="1" layer="-1.00" shape="211.723312,231.038027 211.574110,217.168803 240.822644,216.848776 240.971807,230.717999 211.723312,231.038027"/>
    <poly id="266188470" type="water" color="181,209,209" fill="1" layer="-4.00" shape="267.812361,129.066612 266.376218,128.590962 265.768313,127.514170 265.834907,126.337713 266.153169,125.412202 267.073910,124.643231 265.770797,122.391269 266.261865,121.551658 267.012502,120.863069 268.186353,120.433728 269.290548,120.992390 270.555507,121.481910 270.917325,122.651407 270.604489,124.497170 268.765660,125.026021 268.174011,126.122300 268.852855,126.876375 269.796130,128.080781 270.345879,130.267362 268.609434,130.650400 267.812361,129.066612"/>
    <poly id="266188471" type="water" color="181,209,209" fill="0" layer="-4.00" shape="268.609434,130.650400 266.966906,130.366606 265.570801,129.424591 264.008324,127.620380 263.261169,125.592244 263.237217,124.117870 263.825084,122.788796 264.926146,121.395942 265.979606,120.003861 267.706869,119.055462 270.370409,119.466820 272.388754,120.609408 273.798906,122.416094 274.402019,124.956639 273.357562,126.902995 272.240833,127.331407 272.260642,128.550814 270.345879,130.267362"/>
    <poly id="266188472" type="water" color="181,209,209" fill="0" layer="-4.00" shape="272.240833,127.331407 271.209403,127.148570 270.690783,126.292096 270.604489,124.497170"/>
    <poly id="266188473" type="water" color="181,209,209" fill="0" layer="-4.00" shape="270.345879,130.267362 271.479175,130.858817 273.121522,131.131526 274.356299,131.521740 276.102132,132.302837 277.347712,133.358183 278.336966,134.462046 279.285100,135.965762 279.876687,137.796834 280.003739,139.169737 280.038312,141.298156 279.808636,142.987330 278.917404,144.986639 277.980192,147.086490 277.446588,148.824955 277.069451,150.815912 277.859678,151.978451 278.900673,153.336508 280.349034,153.978288 281.822871,153.843463 283.042699,153.313580 284.075026,153.551846 285.464645,154.094785 286.902584,154.681292 287.573142,154.925435"/>
    <poly id="266188474" type="water" color="181,209,209" fill="1" layer="-4.00" shape="293.881752,152.860312 291.722166,154.747158 289.886066,156.029976 288.395576,157.484595 288.327540,158.572367 287.582307,159.593520 287.935839,160.253084 296.188419,154.752235 295.667642,153.762734 297.740286,151.799681 301.575615,154.587117 297.986394,156.985074 296.914794,158.432888 296.100240,159.876527 295.950662,161.220658 295.043404,162.233354 294.045243,162.925962 292.791296,163.700343 291.447525,164.221149 290.098331,163.821703 289.580254,162.998485 284.643284,165.085685 282.901122,161.598947 285.404897,160.382902 285.637455,158.871097 286.445165,157.006207 287.573142,154.925435 289.749968,152.927422 293.881752,152.860312"/>
    <poly id="266188475" type="natural" color="140,196,107" fill="1" layer="-4.00" shape="276.360446,159.343354 277.133315,157.678621 281.245347,148.774337 282.478947,146.747291 284.479593,145.628126 286.909912,144.579602 291.199403,144.254895 293.306079,144.387004 294.387381,142.950120 297.170017,143.658938 297.496564,147.933773 296.332258,148.950644 293.828479,150.166685 290.879904,150.380904 287.439000,151.357135 286.291262,153.393874 284.240408,156.698277 282.094329,159.416540 280.600960,160.693792 278.661533,160.891622 276.360446,159.343354"/>
    <poly id="266188700" type="landuse" color="194,194,130" fill="1" layer="-3.00" shape="277.133315,157.678621 275.807770,155.804030 273.926809,153.738869 271.365792,152.017408 267.992925,151.905873 265.052430,152.031260 262.598884,151.649758 257.516440,150.057970 254.884841,148.681402 251.046615,145.716613 247.956705,142.506811 245.890683,139.601939 243.465722,135.704940 242.067531,132.290238 241.086817,129.367734 240.613352,126.015628 240.573908,123.587899 240.765086,120.701798 246.777086,121.480108 249.801831,121.264639 250.978203,120.990494 251.554772,120.138405 252.294602,118.784683 252.954178,118.352607 253.452064,117.346558 254.334649,114.815143 255.570951,112.954377 257.976806,110.985903 259.821015,110.201928 264.264237,108.788046 266.105589,108.414392 267.536489,107.980875 268.952106,107.192776 269.613100,106.261698 271.583860,103.302335 272.883880,100.087746 273.194041,98.663387 277.261953,99.939010 280.236292,101.310017 283.371214,102.600797 287.040757,105.146977 289.517383,107.535119 292.376349,112.356508 294.473489,116.591496 295.641781,121.096604 296.041789,125.203919 295.447594,130.247723 298.007171,131.880505 297.717557,135.156299 297.761129,137.838994 296.043477,141.137982 294.387381,142.950120 293.306079,144.387004 291.199403,144.254895 286.909912,144.579602 284.479593,145.628126 282.478947,146.747291 281.245347,148.774337 277.133315,157.678621"/>
    <poly id="266205944" type="landuse" color="194,194,130" fill="1" layer="-3.00" shape="128.139423,193.354208 164.516150,192.762844 166.928697,192.379886 169.857619,190.957310 171.551017,188.512503 170.363788,179.916074 169.104267,176.831781 154.731961,166.719879 151.430721,165.742317 146.927649,165.815520 124.368245,185.143536 123.706974,187.227828 124.123566,191.179633 125.186503,192.714734 128.139423,193.354208"/>
    <poly id="266205946" type="landuse" color="194,194,130" fill="1" layer="-3.00" shape="312.451117,197.422551 310.523627,194.836983 317.899070,189.272776 319.946022,192.177970 322.542994,190.250760 312.865844,177.223763 311.266764,176.096536 309.574844,175.702653 307.470875,175.736824 305.599375,176.598853 302.680515,178.642179 301.338029,179.828270 300.466895,181.306093 299.975490,182.711218 300.190561,184.226842 300.793980,185.614185 309.122893,199.472524 312.451117,197.422551"/>
    <poi id="625789901" type="amenity" color="237,199,199" layer="4.00" x="267.15" y="125.98"/>
</additional>
