<?xml version="1.0" encoding="UTF-8"?>

<!-- generated on Thu Sep  5 16:45:40 2019 by Eclipse SUMO netconvert Version 1.2.0
<configuration xmlns:xsi="http://www.w3.org/2001/XMLSchema-instance" xsi:noNamespaceSchemaLocation="http://sumo.dlr.de/xsd/netconvertConfiguration.xsd">

    <input>
        <opendrive-files value="simulations/Town04/Town04.xodr"/>
    </input>

    <output>
        <output-file value="simulations/Town04/Town04.net.xml"/>
    </output>

    <tls_building>
        <tls.left-green.time value="0"/>
    </tls_building>

    <junctions>
        <rectangular-lane-cut value="true"/>
    </junctions>

</configuration>
-->

<net version="1.1" junctionCornerDetail="5" rectangularLaneCut="true" limitTurnSpeed="5.50" xmlns:xsi="http://www.w3.org/2001/XMLSchema-instance" xsi:noNamespaceSchemaLocation="http://sumo.dlr.de/xsd/net_file.xsd">

    <location netOffset="503.02,423.76" convBoundary="0.00,0.00,899.28,800.65" origBoundary="-499.52,-420.26,409.23,380.40" projParameter="!"/>

    <type id="bidirectional" priority="1" speed="1.39" disallow="tram rail_urban rail rail_electric pedestrian ship" width="3.65"/>
    <type id="border" priority="0" speed="1.39" disallow="all" discard="1" width="0.10"/>
    <type id="driving" priority="1" speed="13.89" disallow="tram rail_urban rail rail_electric pedestrian ship" width="3.65"/>
    <type id="entry" priority="1" speed="22.22" disallow="tram rail_urban rail rail_electric pedestrian ship" width="3.65"/>
    <type id="exit" priority="1" speed="22.22" disallow="tram rail_urban rail rail_electric pedestrian ship" width="3.65"/>
    <type id="median" priority="0" speed="1.39" disallow="all" discard="1" width="0.10"/>
    <type id="mwyEntry" priority="1" speed="22.22" allow="private emergency authority army vip passenger hov taxi bus coach delivery truck trailer motorcycle evehicle custom1 custom2" width="3.65"/>
    <type id="mwyExit" priority="1" speed="22.22" allow="private emergency authority army vip passenger hov taxi bus coach delivery truck trailer motorcycle evehicle custom1 custom2" width="3.65"/>
    <type id="none" priority="0" speed="1.39" disallow="all" discard="1" width="1.00"/>
    <type id="offRamp" priority="1" speed="22.22" allow="private emergency authority army vip passenger hov taxi bus coach delivery truck trailer motorcycle evehicle custom1 custom2" width="3.65"/>
    <type id="onRamp" priority="1" speed="22.22" allow="private emergency authority army vip passenger hov taxi bus coach delivery truck trailer motorcycle evehicle custom1 custom2" width="3.65"/>
    <type id="parking" priority="1" speed="1.39" disallow="tram rail_urban rail rail_electric pedestrian ship" width="2.50"/>
    <type id="rail" priority="3" speed="33.33" allow="rail_urban rail rail_electric" width="3.65"/>
    <type id="restricted" priority="0" speed="13.89" disallow="all" width="3.65"/>
    <type id="roadWorks" priority="0" speed="1.39" allow="authority" width="3.65"/>
    <type id="shoulder" priority="0" speed="1.39" disallow="all" discard="1" width="1.00"/>
    <type id="special1" priority="1" speed="22.22" allow="custom1" discard="1" width="3.65"/>
    <type id="special2" priority="1" speed="22.22" allow="custom2" discard="1" width="3.65"/>
    <type id="special3" priority="1" speed="22.22" allow="custom1 custom2" discard="1" width="3.65"/>
    <type id="stop" priority="1" speed="13.89" disallow="tram rail_urban rail rail_electric pedestrian ship" width="3.65"/>
    <type id="tram" priority="2" speed="13.89" allow="tram" width="3.65"/>

    <edge id=":102_0" function="internal">
        <lane id=":102_0_0" index="0" disallow="tram rail_urban rail rail_electric pedestrian ship" speed="13.89" length="15.00" width="3.50" shape="767.67,734.59,0.01 752.67,734.74,0.01"/>
    </edge>
    <edge id=":102_1" function="internal">
        <lane id=":102_1_0" index="0" disallow="tram rail_urban rail rail_electric pedestrian ship" speed="8.20" length="6.37" width="3.50" shape="767.67,734.59,0.01 763.60,734.05,0.01 761.65,732.90,0.01"/>
    </edge>
    <edge id=":102_6" function="internal">
        <lane id=":102_6_0" index="0" disallow="tram rail_urban rail rail_electric pedestrian ship" speed="8.20" length="8.58" width="3.50" shape="761.65,732.90,0.01 760.70,732.34,0.01 758.95,729.45,0.01 758.35,725.40,0.01"/>
    </edge>
    <edge id=":102_2" function="internal">
        <lane id=":102_2_0" index="0" disallow="tram rail_urban rail rail_electric pedestrian ship" speed="6.60" length="9.28" width="3.50" shape="761.85,725.39,0.01 762.22,727.90,0.01 763.31,729.69,0.01 765.11,730.75,0.01 767.63,731.09,0.01"/>
    </edge>
    <edge id=":102_3" function="internal">
        <lane id=":102_3_0" index="0" disallow="tram rail_urban rail rail_electric pedestrian ship" speed="8.24" length="14.93" width="3.50" shape="761.85,725.39,0.01 761.29,729.44,0.01 759.57,732.36,0.01 756.70,734.12,0.01 752.67,734.74,0.01"/>
    </edge>
    <edge id=":102_4" function="internal">
        <lane id=":102_4_0" index="0" disallow="tram rail_urban rail rail_electric pedestrian ship" speed="6.65" length="9.31" width="3.50" shape="752.63,731.24,0.01 755.14,730.86,0.01 756.93,729.75,0.01 758.00,727.93,0.01 758.35,725.40,0.01"/>
    </edge>
    <edge id=":102_5" function="internal">
        <lane id=":102_5_0" index="0" disallow="tram rail_urban rail rail_electric pedestrian ship" speed="13.89" length="15.00" width="3.50" shape="752.63,731.24,0.01 767.63,731.09,0.01"/>
    </edge>
    <edge id=":109_0" function="internal">
        <lane id=":109_0_0" index="0" disallow="tram rail_urban rail rail_electric pedestrian ship" speed="7.17" length="10.97" width="3.50" shape="814.78,680.05,0.00 814.30,677.34,0.00 812.91,675.39,0.00 810.61,674.21,0.00 807.40,673.80,0.00"/>
    </edge>
    <edge id=":109_1" function="internal">
        <lane id=":109_1_0" index="0" disallow="tram rail_urban rail rail_electric pedestrian ship" speed="13.89" length="17.58" width="3.50" shape="814.78,680.05,0.00 814.63,662.47,0.00"/>
    </edge>
    <edge id=":109_2" function="internal">
        <lane id=":109_2_0" index="0" disallow="tram rail_urban rail rail_electric pedestrian ship" speed="8.58" length="6.18" width="3.50" shape="814.78,680.05,0.00 815.43,675.81,0.00 816.48,674.24,0.00"/>
    </edge>
    <edge id=":109_12" function="internal">
        <lane id=":109_12_0" index="0" disallow="tram rail_urban rail rail_electric pedestrian ship" speed="8.58" length="10.40" width="3.50" shape="816.48,674.24,0.00 817.45,672.80,0.00 820.85,671.00,0.00 825.63,670.43,0.00"/>
    </edge>
    <edge id=":109_3" function="internal">
        <lane id=":109_3_0" index="0" disallow="tram rail_urban rail rail_electric pedestrian ship" speed="7.07" length="10.87" width="3.50" shape="825.60,673.93,0.00 822.38,674.29,0.00 820.09,675.43,0.00 818.72,677.34,0.00 818.28,680.02,0.00"/>
    </edge>
    <edge id=":109_4" function="internal">
        <lane id=":109_4_0" index="0" disallow="tram rail_urban rail rail_electric pedestrian ship" speed="13.89" length="18.20" width="3.50" shape="825.60,673.93,0.00 807.40,673.80,0.00"/>
    </edge>
    <edge id=":109_5" function="internal">
        <lane id=":109_5_0" index="0" disallow="tram rail_urban rail rail_electric pedestrian ship" speed="9.03" length="18.03" width="3.50" shape="825.60,673.93,0.00 820.84,673.19,0.00 817.42,671.03,0.00 815.35,667.46,0.00 814.63,662.47,0.00"/>
    </edge>
    <edge id=":109_6" function="internal">
        <lane id=":109_6_0" index="0" disallow="tram rail_urban rail rail_electric pedestrian ship" speed="7.60" length="12.45" width="3.50" shape="818.13,662.44,0.00 818.62,665.92,0.00 820.04,668.41,0.00 822.37,669.91,0.00 825.63,670.43,0.00"/>
    </edge>
    <edge id=":109_7" function="internal">
        <lane id=":109_7_0" index="0" disallow="tram rail_urban rail rail_electric pedestrian ship" speed="13.89" length="17.58" width="3.50" shape="818.13,662.44,0.00 818.28,680.02,0.00"/>
    </edge>
    <edge id=":109_8" function="internal">
        <lane id=":109_8_0" index="0" disallow="tram rail_urban rail rail_electric pedestrian ship" speed="8.89" length="7.20" width="3.50" shape="818.13,662.44,0.00 817.50,667.44,0.00 816.44,669.32,0.00"/>
    </edge>
    <edge id=":109_13" function="internal">
        <lane id=":109_13_0" index="0" disallow="tram rail_urban rail rail_electric pedestrian ship" speed="8.89" length="10.68" width="3.50" shape="816.44,669.32,0.00 815.50,671.00,0.00 812.13,673.12,0.00 807.40,673.80,0.00"/>
    </edge>
    <edge id=":109_9" function="internal">
        <lane id=":109_9_0" index="0" disallow="tram rail_urban rail rail_electric pedestrian ship" speed="7.44" length="12.17" width="3.50" shape="807.43,670.30,0.00 810.60,669.83,0.00 812.86,668.37,0.00 814.20,665.92,0.00 814.63,662.47,0.00"/>
    </edge>
    <edge id=":109_10" function="internal">
        <lane id=":109_10_0" index="0" disallow="tram rail_urban rail rail_electric pedestrian ship" speed="13.89" length="18.20" width="3.50" shape="807.43,670.30,0.00 825.63,670.43,0.00"/>
    </edge>
    <edge id=":109_11" function="internal">
        <lane id=":109_11_0" index="0" disallow="tram rail_urban rail rail_electric pedestrian ship" speed="8.67" length="16.54" width="3.50" shape="807.43,670.30,0.00 812.15,670.94,0.00 815.53,672.77,0.00 817.57,675.80,0.00 818.28,680.02,0.00"/>
    </edge>
    <edge id=":122_0" function="internal">
        <lane id=":122_0_0" index="0" disallow="tram rail_urban rail rail_electric pedestrian ship" speed="13.89" length="15.73" width="3.50" shape="814.58,657.18,0.00 814.44,641.45,0.00"/>
    </edge>
    <edge id=":122_1" function="internal">
        <lane id=":122_1_0" index="0" disallow="tram rail_urban rail rail_electric pedestrian ship" speed="13.89" length="15.47" width="3.50" shape="821.92,642.28,0.00 820.43,645.81,0.00 819.19,649.54,0.00 818.37,653.35,0.00 818.08,657.14,0.00"/>
    </edge>
    <edge id=":122_2" function="internal">
        <lane id=":122_2_0" index="0" disallow="tram rail_urban rail rail_electric pedestrian ship" speed="13.89" length="15.73" width="3.50" shape="817.94,641.42,0.00 818.08,657.14,0.00"/>
    </edge>
    <edge id=":126_0" function="internal">
        <lane id=":126_0_0" index="0" disallow="tram rail_urban rail rail_electric pedestrian ship" speed="7.63" length="12.68" width="3.50" shape="814.11,604.09,0.10 813.59,600.61,0.10 812.11,598.14,0.10 809.67,596.66,0.10 806.27,596.19,0.10"/>
    </edge>
    <edge id=":126_1" function="internal">
        <lane id=":126_1_0" index="0" disallow="tram rail_urban rail rail_electric pedestrian ship" speed="13.89" length="19.10" width="3.50" shape="814.11,604.09,0.10 813.94,584.98,0.10"/>
    </edge>
    <edge id=":126_2" function="internal">
        <lane id=":126_2_0" index="0" disallow="tram rail_urban rail rail_electric pedestrian ship" speed="8.93" length="7.25" width="3.50" shape="814.11,604.09,0.10 814.73,599.08,0.10 815.79,597.15,0.10"/>
    </edge>
    <edge id=":126_11" function="internal">
        <lane id=":126_11_0" index="0" disallow="tram rail_urban rail rail_electric pedestrian ship" speed="8.93" length="10.61" width="3.50" shape="815.79,597.15,0.10 816.71,595.49,0.10 820.04,593.32,0.10 824.72,592.58,0.10"/>
    </edge>
    <edge id=":126_3" function="internal">
        <lane id=":126_3_0" index="0" disallow="tram rail_urban rail rail_electric pedestrian ship" speed="7.48" length="12.20" width="3.50" shape="824.74,596.08,0.10 821.59,596.60,0.10 819.36,598.10,0.10 818.03,600.58,0.10 817.61,604.05,0.10"/>
    </edge>
    <edge id=":126_4" function="internal">
        <lane id=":126_4_0" index="0" disallow="tram rail_urban rail rail_electric pedestrian ship" speed="13.89" length="18.48" width="3.50" shape="824.74,596.08,0.10 806.27,596.19,0.10"/>
    </edge>
    <edge id=":126_5" function="internal">
        <lane id=":126_5_0" index="0" disallow="tram rail_urban rail rail_electric pedestrian ship" speed="8.90" length="17.65" width="3.50" shape="824.74,596.08,0.10 820.05,595.41,0.10 816.69,593.34,0.10 814.65,589.86,0.10 813.94,584.98,0.10"/>
    </edge>
    <edge id=":126_6" function="internal">
        <lane id=":126_6_0" index="0" disallow="tram rail_urban rail rail_electric pedestrian ship" speed="7.45" length="12.02" width="3.50" shape="817.44,584.95,0.10 817.92,588.31,0.10 819.29,590.70,0.10 821.56,592.12,0.10 824.72,592.58,0.10"/>
    </edge>
    <edge id=":126_7" function="internal">
        <lane id=":126_7_0" index="0" disallow="tram rail_urban rail rail_electric pedestrian ship" speed="13.89" length="19.10" width="3.50" shape="817.44,584.95,0.10 817.61,604.05,0.10"/>
    </edge>
    <edge id=":126_8" function="internal">
        <lane id=":126_8_0" index="0" disallow="tram rail_urban rail rail_electric pedestrian ship" speed="7.54" length="12.42" width="3.50" shape="806.25,592.69,0.10 809.64,592.19,0.10 812.05,590.74,0.10 813.48,588.34,0.10 813.94,584.98,0.10"/>
    </edge>
    <edge id=":126_9" function="internal">
        <lane id=":126_9_0" index="0" disallow="tram rail_urban rail rail_electric pedestrian ship" speed="13.89" length="18.48" width="3.50" shape="806.25,592.69,0.10 824.72,592.58,0.10"/>
    </edge>
    <edge id=":126_10" function="internal">
        <lane id=":126_10_0" index="0" disallow="tram rail_urban rail rail_electric pedestrian ship" speed="9.05" length="18.31" width="3.50" shape="806.25,592.69,0.10 811.18,593.37,0.10 814.72,595.50,0.10 816.86,599.06,0.10 817.61,604.05,0.10"/>
    </edge>
    <edge id=":139_0" function="internal">
        <lane id=":139_0_0" index="0" disallow="tram rail_urban rail rail_electric pedestrian ship" speed="6.93" length="10.34" width="3.50" shape="813.64,551.63,0.01 813.21,548.84,0.01 811.98,546.86,0.01 809.95,545.69,0.01 807.13,545.34,0.01"/>
    </edge>
    <edge id=":139_1" function="internal">
        <lane id=":139_1_0" index="0" disallow="tram rail_urban rail rail_electric pedestrian ship" speed="13.89" length="15.68" width="3.50" shape="813.64,551.63,0.01 813.50,535.95,0.01"/>
    </edge>
    <edge id=":139_2" function="internal">
        <lane id=":139_2_0" index="0" disallow="tram rail_urban rail rail_electric pedestrian ship" speed="8.73" length="6.31" width="3.50" shape="813.64,551.63,0.01 814.29,547.29,0.01 815.34,545.68,0.01"/>
    </edge>
    <edge id=":139_12" function="internal">
        <lane id=":139_12_0" index="0" disallow="tram rail_urban rail rail_electric pedestrian ship" speed="8.73" length="10.58" width="3.50" shape="815.34,545.68,0.01 816.32,544.17,0.01 819.74,542.25,0.01 824.55,541.56,0.01"/>
    </edge>
    <edge id=":139_3" function="internal">
        <lane id=":139_3_0" index="0" disallow="tram rail_urban rail rail_electric pedestrian ship" speed="7.24" length="11.28" width="3.50" shape="824.60,545.06,0.01 821.32,545.51,0.01 818.98,546.75,0.01 817.58,548.78,0.01 817.14,551.60,0.01"/>
    </edge>
    <edge id=":139_4" function="internal">
        <lane id=":139_4_0" index="0" disallow="tram rail_urban rail rail_electric pedestrian ship" speed="13.89" length="17.48" width="3.50" shape="824.60,545.06,0.01 807.13,545.34,0.01"/>
    </edge>
    <edge id=":139_5" function="internal">
        <lane id=":139_5_0" index="0" disallow="tram rail_urban rail rail_electric pedestrian ship" speed="8.56" length="16.37" width="3.50" shape="824.60,545.06,0.01 819.78,544.56,0.01 816.32,542.87,0.01 814.22,540.00,0.01 813.50,535.95,0.01"/>
    </edge>
    <edge id=":139_6" function="internal">
        <lane id=":139_6_0" index="0" disallow="tram rail_urban rail rail_electric pedestrian ship" speed="7.04" length="10.71" width="3.50" shape="817.00,535.92,0.01 817.49,538.43,0.01 818.91,540.21,0.01 821.26,541.25,0.01 824.55,541.56,0.01"/>
    </edge>
    <edge id=":139_7" function="internal">
        <lane id=":139_7_0" index="0" disallow="tram rail_urban rail rail_electric pedestrian ship" speed="13.89" length="15.68" width="3.50" shape="817.00,535.92,0.01 817.14,551.60,0.01"/>
    </edge>
    <edge id=":139_8" function="internal">
        <lane id=":139_8_0" index="0" disallow="tram rail_urban rail rail_electric pedestrian ship" speed="8.39" length="6.19" width="3.50" shape="817.00,535.92,0.01 816.41,539.98,0.01 815.30,541.75,0.01"/>
    </edge>
    <edge id=":139_13" function="internal">
        <lane id=":139_13_0" index="0" disallow="tram rail_urban rail rail_electric pedestrian ship" speed="8.39" length="9.34" width="3.50" shape="815.30,541.75,0.01 814.57,542.90,0.01 811.48,544.69,0.01 807.13,545.34,0.01"/>
    </edge>
    <edge id=":139_9" function="internal">
        <lane id=":139_9_0" index="0" disallow="tram rail_urban rail rail_electric pedestrian ship" speed="6.84" length="9.92" width="3.50" shape="807.07,541.84,0.01 809.90,541.43,0.01 811.92,540.32,0.01 813.12,538.49,0.01 813.50,535.95,0.01"/>
    </edge>
    <edge id=":139_10" function="internal">
        <lane id=":139_10_0" index="0" disallow="tram rail_urban rail rail_electric pedestrian ship" speed="13.89" length="17.48" width="3.50" shape="807.07,541.84,0.01 824.55,541.56,0.01"/>
    </edge>
    <edge id=":139_11" function="internal">
        <lane id=":139_11_0" index="0" disallow="tram rail_urban rail rail_electric pedestrian ship" speed="8.47" length="16.02" width="3.50" shape="807.07,541.84,0.01 811.44,542.39,0.01 814.58,544.20,0.01 816.48,547.27,0.01 817.14,551.60,0.01"/>
    </edge>
    <edge id=":152_0" function="internal">
        <lane id=":152_0_0" index="0" disallow="tram rail_urban rail rail_electric pedestrian ship" speed="13.89" length="34.11" width="3.50" shape="518.26,473.00 518.13,507.10"/>
        <lane id=":152_0_1" index="1" disallow="tram rail_urban rail rail_electric pedestrian ship" speed="13.89" length="34.11" width="3.50" shape="514.76,472.99 514.63,507.09"/>
        <lane id=":152_0_2" index="2" disallow="tram rail_urban rail rail_electric pedestrian ship" speed="13.89" length="34.11" width="3.50" shape="511.26,472.97 511.13,507.08"/>
        <lane id=":152_0_3" index="3" disallow="tram rail_urban rail rail_electric pedestrian ship" speed="13.89" length="34.11" width="3.50" shape="507.76,472.96 507.63,507.06"/>
    </edge>
    <edge id=":152_4" function="internal">
        <lane id=":152_4_0" index="0" disallow="tram rail_urban rail rail_electric pedestrian ship" speed="13.89" length="35.98" width="3.50" shape="480.00,505.33 483.43,501.08 488.00,494.24 492.01,484.85 493.76,472.90"/>
    </edge>
    <edge id=":152_5" function="internal">
        <lane id=":152_5_0" index="0" disallow="tram rail_urban rail rail_electric pedestrian ship" speed="13.89" length="34.11" width="3.50" shape="493.63,507.01 493.76,472.90"/>
        <lane id=":152_5_1" index="1" disallow="tram rail_urban rail rail_electric pedestrian ship" speed="13.89" length="34.11" width="3.50" shape="497.13,507.02 497.26,472.92"/>
        <lane id=":152_5_2" index="2" disallow="tram rail_urban rail rail_electric pedestrian ship" speed="13.89" length="34.11" width="3.50" shape="500.63,507.04 500.76,472.93"/>
        <lane id=":152_5_3" index="3" disallow="tram rail_urban rail rail_electric pedestrian ship" speed="13.89" length="34.11" width="3.50" shape="504.13,507.05 504.26,472.94"/>
    </edge>
    <edge id=":157_0" function="internal">
        <lane id=":157_0_0" index="0" disallow="tram rail_urban rail rail_electric pedestrian ship" speed="7.63" length="12.75" width="3.50" shape="757.98,604.22,0.11 757.46,600.83,0.11 755.95,598.41,0.11 753.42,596.97,0.11 749.89,596.51,0.11"/>
    </edge>
    <edge id=":157_1" function="internal">
        <lane id=":157_1_0" index="0" disallow="tram rail_urban rail rail_electric pedestrian ship" speed="13.89" length="19.79" width="3.50" shape="757.98,604.22,0.11 757.92,584.43,0.11"/>
    </edge>
    <edge id=":157_2" function="internal">
        <lane id=":157_2_0" index="0" disallow="tram rail_urban rail rail_electric pedestrian ship" speed="9.04" length="18.25" width="3.50" shape="757.98,604.22,0.11 758.67,599.29,0.11 760.79,595.76,0.11 764.33,593.63,0.11 769.30,592.90,0.11"/>
    </edge>
    <edge id=":157_3" function="internal">
        <lane id=":157_3_0" index="0" disallow="tram rail_urban rail rail_electric pedestrian ship" speed="7.61" length="12.62" width="3.50" shape="769.32,596.40,0.11 765.88,596.90,0.11 763.43,598.37,0.11 761.96,600.81,0.11 761.48,604.21,0.11"/>
    </edge>
    <edge id=":157_4" function="internal">
        <lane id=":157_4_0" index="0" disallow="tram rail_urban rail rail_electric pedestrian ship" speed="13.89" length="19.43" width="3.50" shape="769.32,596.40,0.11 749.89,596.51,0.11"/>
    </edge>
    <edge id=":157_5" function="internal">
        <lane id=":157_5_0" index="0" disallow="tram rail_urban rail rail_electric pedestrian ship" speed="9.16" length="6.89" width="3.50" shape="769.32,596.40,0.11 764.35,595.67,0.11 762.77,594.69,0.11"/>
    </edge>
    <edge id=":157_12" function="internal">
        <lane id=":157_12_0" index="0" disallow="tram rail_urban rail rail_electric pedestrian ship" speed="9.16" length="11.97" width="3.50" shape="762.77,594.69,0.11 760.79,593.44,0.11 758.64,589.69,0.11 757.92,584.43,0.11"/>
    </edge>
    <edge id=":157_6" function="internal">
        <lane id=":157_6_0" index="0" disallow="tram rail_urban rail rail_electric pedestrian ship" speed="7.76" length="13.20" width="3.50" shape="761.42,584.42,0.11 761.92,588.15,0.11 763.40,590.80,0.11 765.86,592.39,0.11 769.30,592.90,0.11"/>
    </edge>
    <edge id=":157_7" function="internal">
        <lane id=":157_7_0" index="0" disallow="tram rail_urban rail rail_electric pedestrian ship" speed="13.89" length="19.79" width="3.50" shape="761.42,584.42,0.11 761.48,604.21,0.11"/>
    </edge>
    <edge id=":157_8" function="internal">
        <lane id=":157_8_0" index="0" disallow="tram rail_urban rail rail_electric pedestrian ship" speed="9.22" length="19.03" width="3.50" shape="761.42,584.42,0.11 760.71,589.69,0.11 758.55,593.45,0.11 754.95,595.73,0.11 749.89,596.51,0.11"/>
    </edge>
    <edge id=":157_9" function="internal">
        <lane id=":157_9_0" index="0" disallow="tram rail_urban rail rail_electric pedestrian ship" speed="7.82" length="13.40" width="3.50" shape="749.87,593.01,0.11 753.40,592.46,0.11 755.92,590.84,0.11 757.42,588.17,0.11 757.92,584.43,0.11"/>
    </edge>
    <edge id=":157_10" function="internal">
        <lane id=":157_10_0" index="0" disallow="tram rail_urban rail rail_electric pedestrian ship" speed="13.89" length="19.43" width="3.50" shape="749.87,593.01,0.11 769.30,592.90,0.11"/>
    </edge>
    <edge id=":157_11" function="internal">
        <lane id=":157_11_0" index="0" disallow="tram rail_urban rail rail_electric pedestrian ship" speed="9.06" length="7.18" width="3.50" shape="749.87,593.01,0.11 754.94,593.68,0.11 756.73,594.72,0.11"/>
    </edge>
    <edge id=":157_13" function="internal">
        <lane id=":157_13_0" index="0" disallow="tram rail_urban rail rail_electric pedestrian ship" speed="9.06" length="11.23" width="3.50" shape="756.73,594.72,0.11 758.56,595.78,0.11 760.74,599.29,0.11 761.48,604.21,0.11"/>
    </edge>
    <edge id=":170_0" function="internal">
        <lane id=":170_0_0" index="0" disallow="tram rail_urban rail rail_electric pedestrian ship" speed="6.84" length="9.96" width="3.50" shape="885.10,601.45,0.10 884.66,598.95,0.10 883.40,597.18,0.10 881.32,596.12,0.10 878.43,595.78,0.10"/>
    </edge>
    <edge id=":170_1" function="internal">
        <lane id=":170_1_0" index="0" disallow="tram rail_urban rail rail_electric pedestrian ship" speed="13.89" length="14.88" width="3.50" shape="888.60,601.41,0.10 888.44,586.53,0.10"/>
        <lane id=":170_1_1" index="1" disallow="tram rail_urban rail rail_electric pedestrian ship" speed="13.89" length="14.88" width="3.50" shape="892.10,601.38,0.10 891.94,586.49,0.10"/>
        <lane id=":170_1_2" index="2" disallow="tram rail_urban rail rail_electric pedestrian ship" speed="13.89" length="14.88" width="3.50" shape="895.60,601.34,0.10 895.44,586.46,0.10"/>
    </edge>
    <edge id=":170_4" function="internal">
        <lane id=":170_4_0" index="0" disallow="tram rail_urban rail rail_electric pedestrian ship" speed="13.89" length="14.88" width="3.50" shape="909.44,586.31,0.10 909.59,601.19,0.10"/>
        <lane id=":170_4_1" index="1" disallow="tram rail_urban rail rail_electric pedestrian ship" speed="13.89" length="14.88" width="3.50" shape="905.94,586.35,0.10 906.09,601.23,0.10"/>
        <lane id=":170_4_2" index="2" disallow="tram rail_urban rail rail_electric pedestrian ship" speed="13.89" length="14.88" width="3.50" shape="902.44,586.39,0.10 902.60,601.27,0.10"/>
        <lane id=":170_4_3" index="3" disallow="tram rail_urban rail rail_electric pedestrian ship" speed="13.89" length="14.88" width="3.50" shape="898.94,586.42,0.10 899.10,601.30,0.10"/>
    </edge>
    <edge id=":170_8" function="internal">
        <lane id=":170_8_0" index="0" disallow="tram rail_urban rail rail_electric pedestrian ship" speed="6.80" length="9.89" width="3.50" shape="878.41,592.28,0.10 881.29,591.91,0.10 883.34,590.83,0.10 884.55,589.05,0.10 884.94,586.57,0.10"/>
    </edge>
    <edge id=":175_0" function="internal">
        <lane id=":175_0_0" index="0" disallow="tram rail_urban rail rail_electric pedestrian ship" speed="8.35" length="9.14" width="3.50" shape="838.25,596.01,0.10 835.98,596.30,0.10 833.98,597.15,0.10 832.25,598.56,0.10 830.80,600.53,0.10"/>
    </edge>
    <edge id=":175_1" function="internal">
        <lane id=":175_1_0" index="0" disallow="tram rail_urban rail rail_electric pedestrian ship" speed="13.89" length="9.85" width="3.50" shape="838.25,596.01,0.10 828.40,596.06,0.10"/>
    </edge>
    <edge id=":175_2" function="internal">
        <lane id=":175_2_0" index="0" disallow="tram rail_urban rail rail_electric pedestrian ship" speed="13.89" length="9.85" width="3.50" shape="828.38,592.56,0.10 838.23,592.51,0.10"/>
    </edge>
    <edge id=":175_3" function="internal">
        <lane id=":175_3_0" index="0" disallow="tram rail_urban rail rail_electric pedestrian ship" speed="6.19" length="4.53" width="3.50" shape="828.38,592.56,0.10 831.20,593.04,0.10 832.32,594.29,0.10"/>
    </edge>
    <edge id=":175_4" function="internal">
        <lane id=":175_4_0" index="0" disallow="tram rail_urban rail rail_electric pedestrian ship" speed="6.19" length="6.68" width="3.50" shape="832.32,594.29,0.10 832.54,594.53,0.10 832.41,597.03,0.10 830.80,600.53,0.10"/>
    </edge>
    <edge id=":180_0" function="internal">
        <lane id=":180_0_0" index="0" disallow="tram rail_urban rail rail_electric pedestrian ship" speed="13.89" length="57.42" width="3.50" shape="525.73,298.92 523.42,306.69 521.19,321.35 519.49,338.99 518.78,355.74"/>
    </edge>
    <edge id=":180_1" function="internal">
        <lane id=":180_1_0" index="0" disallow="tram rail_urban rail rail_electric pedestrian ship" speed="13.89" length="58.17" width="3.50" shape="519.07,297.57 518.78,355.74"/>
        <lane id=":180_1_1" index="1" disallow="tram rail_urban rail rail_electric pedestrian ship" speed="13.89" length="58.17" width="3.50" shape="515.57,297.55 515.28,355.72"/>
        <lane id=":180_1_2" index="2" disallow="tram rail_urban rail rail_electric pedestrian ship" speed="13.89" length="58.17" width="3.50" shape="512.07,297.53 511.78,355.70"/>
        <lane id=":180_1_3" index="3" disallow="tram rail_urban rail rail_electric pedestrian ship" speed="13.89" length="58.17" width="3.50" shape="508.57,297.51 508.28,355.69"/>
    </edge>
    <edge id=":180_5" function="internal">
        <lane id=":180_5_0" index="0" disallow="tram rail_urban rail rail_electric pedestrian ship" speed="13.89" length="58.17" width="3.50" shape="494.28,355.62 494.57,297.44"/>
        <lane id=":180_5_1" index="1" disallow="tram rail_urban rail rail_electric pedestrian ship" speed="13.89" length="58.17" width="3.50" shape="497.78,355.63 498.07,297.46"/>
        <lane id=":180_5_2" index="2" disallow="tram rail_urban rail rail_electric pedestrian ship" speed="13.89" length="58.17" width="3.50" shape="501.28,355.65 501.57,297.48"/>
        <lane id=":180_5_3" index="3" disallow="tram rail_urban rail rail_electric pedestrian ship" speed="13.89" length="58.17" width="3.50" shape="504.78,355.67 505.07,297.50"/>
    </edge>
    <edge id=":185_0" function="internal">
        <lane id=":185_0_0" index="0" disallow="tram rail_urban rail rail_electric pedestrian ship" speed="13.89" length="42.09" width="3.50" shape="612.29,423.76,10.72 606.97,421.56,10.72 597.79,419.49,10.72 585.63,417.96,10.72 571.38,417.40,10.72"/>
        <lane id=":185_0_1" index="1" disallow="tram rail_urban rail rail_electric pedestrian ship" speed="13.89" length="42.09" width="3.50" shape="612.29,423.76,10.72 606.97,421.01,10.72 597.78,417.74,10.72 585.62,415.01,10.72 571.36,413.90,10.72"/>
    </edge>
    <edge id=":185_2" function="internal">
        <lane id=":185_2_0" index="0" disallow="tram rail_urban rail rail_electric pedestrian ship" speed="13.89" length="56.39" width="3.50" shape="612.29,423.76,10.72 600.90,413.06,10.72 597.28,401.95,10.72 601.43,390.45,10.72 613.35,378.54,10.72"/>
    </edge>
    <edge id=":185_3" function="internal">
        <lane id=":185_3_0" index="0" disallow="tram rail_urban rail rail_electric pedestrian ship" speed="9.18" length="32.64" width="3.50" shape="612.29,423.76,10.72 606.00,416.78,10.72 604.03,408.87,10.72 606.67,402.35,10.72 614.23,399.55,10.72"/>
    </edge>
    <edge id=":185_4" function="internal">
        <lane id=":185_4_0" index="0" disallow="tram rail_urban rail rail_electric pedestrian ship" speed="8.54" length="27.97" width="3.50" shape="612.29,423.76,10.72 606.96,417.79,10.72 605.38,411.02,10.72 607.76,405.45,10.72 614.28,403.05,10.72"/>
    </edge>
    <edge id=":185_5" function="internal">
        <lane id=":185_5_0" index="0" disallow="tram rail_urban rail rail_electric pedestrian ship" speed="13.89" length="43.08" width="3.50" shape="614.52,417.05,10.72 571.38,417.40,10.72"/>