<?xml version="1.0" encoding="UTF-8"?>

<!-- generated on 05/16/19 16:43:02 by Eclipse SUMO netconvert Version 1.2.0
<configuration xmlns:xsi="http://www.w3.org/2001/XMLSchema-instance" xsi:noNamespaceSchemaLocation="http://sumo.dlr.de/xsd/netconvertConfiguration.xsd">

    <input>
        <opendrive-files value="Town03.xodr"/>
    </input>

    <output>
        <output-file value="Town03.net.xml"/>
    </output>

    <tls_building>
        <tls.left-green.time value="0"/>
    </tls_building>

    <junctions>
        <rectangular-lane-cut value="true"/>
    </junctions>

</configuration>
-->

<net version="1.1" junctionCornerDetail="5" rectangularLaneCut="true" limitTurnSpeed="5.50" xmlns:xsi="http://www.w3.org/2001/XMLSchema-instance" xsi:noNamespaceSchemaLocation="http://sumo.dlr.de/xsd/net_file.xsd">

    <location netOffset="147.31,198.89" convBoundary="0.00,0.00,402.06,512.02" origBoundary="-286.23,-264.80,306.22,310.27" projParameter="!"/>

    <type id="bidirectional" priority="1" speed="1.39" disallow="tram rail_urban rail rail_electric pedestrian ship" width="3.65"/>
    <type id="border" priority="0" speed="1.39" disallow="all" discard="1" width="0.10"/>
    <type id="driving" priority="1" speed="13.89" disallow="tram rail_urban rail rail_electric pedestrian ship" width="3.65"/>
    <type id="entry" priority="1" speed="22.22" disallow="tram rail_urban rail rail_electric pedestrian ship" width="3.65"/>
    <type id="exit" priority="1" speed="22.22" disallow="tram rail_urban rail rail_electric pedestrian ship" width="3.65"/>
    <type id="median" priority="0" speed="1.39" disallow="all" discard="1" width="0.10"/>
    <type id="mwyEntry" priority="1" speed="22.22" allow="private emergency authority army vip passenger hov taxi bus coach delivery truck trailer motorcycle evehicle custom1 custom2" width="3.65"/>
    <type id="mwyExit" priority="1" speed="22.22" allow="private emergency authority army vip passenger hov taxi bus coach delivery truck trailer motorcycle evehicle custom1 custom2" width="3.65"/>
    <type id="none" priority="0" speed="1.39" disallow="all" discard="1" width="1.00"/>
    <type id="offRamp" priority="1" speed="22.22" allow="private emergency authority army vip passenger hov taxi bus coach delivery truck trailer motorcycle evehicle custom1 custom2" width="3.65"/>
    <type id="onRamp" priority="1" speed="22.22" allow="private emergency authority army vip passenger hov taxi bus coach delivery truck trailer motorcycle evehicle custom1 custom2" width="3.65"/>
    <type id="parking" priority="1" speed="1.39" disallow="tram rail_urban rail rail_electric pedestrian ship" width="2.50"/>
    <type id="rail" priority="3" speed="33.33" allow="rail_urban rail rail_electric" width="3.65"/>
    <type id="restricted" priority="0" speed="13.89" disallow="all" width="3.65"/>
    <type id="roadWorks" priority="0" speed="1.39" allow="authority" width="3.65"/>
    <type id="shoulder" priority="0" speed="1.39" disallow="all" discard="1" width="1.00"/>
    <type id="special1" priority="1" speed="22.22" allow="custom1" discard="1" width="3.65"/>
    <type id="special2" priority="1" speed="22.22" allow="custom2" discard="1" width="3.65"/>
    <type id="special3" priority="1" speed="22.22" allow="custom1 custom2" discard="1" width="3.65"/>
    <type id="stop" priority="1" speed="13.89" disallow="tram rail_urban rail rail_electric pedestrian ship" width="3.65"/>
    <type id="tram" priority="2" speed="13.89" allow="tram" width="3.65"/>

    <edge id=":107_0" function="internal">
        <lane id=":107_0_0" index="0" disallow="tram rail_urban rail rail_electric pedestrian ship" speed="7.05" length="10.86" width="3.50" shape="80.99,70.42,0.02 77.63,70.70,0.02 75.22,71.73,0.02 73.77,73.51,0.02 73.28,76.03,0.02"/>
    </edge>
    <edge id=":107_1" function="internal">
        <lane id=":107_1_0" index="0" disallow="tram rail_urban rail rail_electric pedestrian ship" speed="13.89" length="29.20" width="3.50" shape="81.07,66.92,0.02 51.88,66.26,0.02"/>
    </edge>
    <edge id=":107_2" function="internal">
        <lane id=":107_2_0" index="0" disallow="tram rail_urban rail rail_electric pedestrian ship" speed="10.75" length="10.88" width="3.50" shape="81.07,66.92,0.02 72.79,65.93,0.02 70.46,64.93,0.02"/>
    </edge>
    <edge id=":107_9" function="internal">
        <lane id=":107_9_0" index="0" disallow="tram rail_urban rail rail_electric pedestrian ship" speed="10.75" length="15.09" width="3.50" shape="70.46,64.93,0.02 66.87,63.38,0.02 63.34,59.29,0.02 62.17,53.64,0.02"/>
    </edge>
    <edge id=":107_3" function="internal">
        <lane id=":107_3_0" index="0" disallow="tram rail_urban rail rail_electric pedestrian ship" speed="10.28" length="24.35" width="3.50" shape="69.17,53.66,0.02 68.07,59.32,0.02 64.83,63.30,0.02 59.43,65.62,0.02 51.88,66.26,0.02"/>
    </edge>
    <edge id=":107_4" function="internal">
        <lane id=":107_4_0" index="0" disallow="tram rail_urban rail rail_electric pedestrian ship" speed="7.62" length="12.87" width="3.50" shape="51.96,62.76,0.02 54.88,62.24,0.02 56.98,60.55,0.02 58.24,57.68,0.02 58.67,53.62,0.02"/>
    </edge>
    <edge id=":107_5" function="internal">
        <lane id=":107_5_0" index="0" disallow="tram rail_urban rail rail_electric pedestrian ship" speed="13.89" length="29.20" width="3.50" shape="51.96,62.76,0.02 81.15,63.42,0.02"/>
    </edge>
    <edge id=":107_6" function="internal">
        <lane id=":107_6_0" index="0" disallow="tram rail_urban rail rail_electric pedestrian ship" speed="7.99" length="13.82" width="3.50" shape="59.28,75.99,0.02 58.83,71.79,0.02 57.45,68.77,0.02 55.13,66.93,0.02 51.88,66.26,0.02"/>
    </edge>
    <edge id=":107_7" function="internal">
        <lane id=":107_7_0" index="0" disallow="tram rail_urban rail rail_electric pedestrian ship" speed="13.89" length="22.37" width="3.50" shape="59.28,75.99,0.02 58.67,53.62,0.02"/>
    </edge>
    <edge id=":107_8" function="internal">
        <lane id=":107_8_0" index="0" disallow="tram rail_urban rail rail_electric pedestrian ship" speed="10.46" length="25.28" width="3.50" shape="62.78,76.00,0.02 63.95,70.34,0.02 67.39,66.36,0.02 73.13,64.05,0.02 81.15,63.42,0.02"/>
    </edge>
    <edge id=":122_0" function="internal">
        <lane id=":122_0_0" index="0" disallow="tram rail_urban rail rail_electric pedestrian ship" speed="8.32" length="15.17" width="3.50" shape="229.43,344.77,8.13 228.70,340.69,8.13 226.84,337.80,8.13 223.85,336.10,8.13 219.73,335.61,8.13"/>
    </edge>
    <edge id=":122_1" function="internal">
        <lane id=":122_1_0" index="0" disallow="tram rail_urban rail rail_electric pedestrian ship" speed="13.89" length="22.20" width="3.50" shape="229.43,344.77,8.13 228.65,322.59,8.13"/>
    </edge>
    <edge id=":122_2" function="internal">
        <lane id=":122_2_0" index="0" disallow="tram rail_urban rail rail_electric pedestrian ship" speed="9.53" length="7.50" width="3.50" shape="229.43,344.77,8.13 230.04,339.13,8.13 230.93,337.53,8.13"/>
    </edge>
    <edge id=":122_12" function="internal">
        <lane id=":122_12_0" index="0" disallow="tram rail_urban rail rail_electric pedestrian ship" speed="9.53" length="13.18" width="3.50" shape="230.93,337.53,8.13 232.31,335.05,8.13 236.25,332.56,8.13 241.85,331.63,8.13"/>
    </edge>
    <edge id=":122_3" function="internal">
        <lane id=":122_3_0" index="0" disallow="tram rail_urban rail rail_electric pedestrian ship" speed="8.19" length="14.98" width="3.50" shape="241.92,335.13,8.13 237.87,335.80,8.13 235.01,337.61,8.13 233.37,340.56,8.13 232.93,344.65,8.13"/>
    </edge>
    <edge id=":122_4" function="internal">
        <lane id=":122_4_0" index="0" disallow="tram rail_urban rail rail_electric pedestrian ship" speed="13.89" length="22.20" width="3.50" shape="241.92,335.13,8.13 219.73,335.61,8.13"/>
    </edge>
    <edge id=":122_5" function="internal">
        <lane id=":122_5_0" index="0" disallow="tram rail_urban rail rail_electric pedestrian ship" speed="9.64" length="20.76" width="3.50" shape="241.92,335.13,8.13 236.29,334.45,8.13 232.19,332.13,8.13 229.65,328.18,8.13 228.65,322.59,8.13"/>
    </edge>
    <edge id=":122_6" function="internal">
        <lane id=":122_6_0" index="0" disallow="tram rail_urban rail rail_electric pedestrian ship" speed="8.32" length="15.17" width="3.50" shape="232.15,322.47,8.13 232.88,326.55,8.13 234.74,329.44,8.13 237.73,331.13,8.13 241.85,331.63,8.13"/>
    </edge>
    <edge id=":122_7" function="internal">
        <lane id=":122_7_0" index="0" disallow="tram rail_urban rail rail_electric pedestrian ship" speed="13.89" length="22.20" width="3.50" shape="232.15,322.47,8.13 232.93,344.65,8.13"/>
    </edge>
    <edge id=":122_8" function="internal">
        <lane id=":122_8_0" index="0" disallow="tram rail_urban rail rail_electric pedestrian ship" speed="9.53" length="7.50" width="3.50" shape="232.15,322.47,8.13 231.54,328.11,8.13 230.65,329.71,8.13"/>
    </edge>
    <edge id=":122_13" function="internal">
        <lane id=":122_13_0" index="0" disallow="tram rail_urban rail rail_electric pedestrian ship" speed="9.53" length="13.18" width="3.50" shape="230.65,329.71,8.13 229.27,332.18,8.13 225.33,334.68,8.13 219.73,335.61,8.13"/>
    </edge>
    <edge id=":122_9" function="internal">
        <lane id=":122_9_0" index="0" disallow="tram rail_urban rail rail_electric pedestrian ship" speed="8.19" length="14.98" width="3.50" shape="219.66,332.11,8.13 223.71,331.44,8.13 226.57,329.63,8.13 228.21,326.68,8.13 228.65,322.59,8.13"/>
    </edge>
    <edge id=":122_10" function="internal">
        <lane id=":122_10_0" index="0" disallow="tram rail_urban rail rail_electric pedestrian ship" speed="13.89" length="22.20" width="3.50" shape="219.66,332.11,8.13 241.85,331.63,8.13"/>
    </edge>
    <edge id=":122_11" function="internal">
        <lane id=":122_11_0" index="0" disallow="tram rail_urban rail rail_electric pedestrian ship" speed="9.64" length="20.76" width="3.50" shape="219.66,332.11,8.13 225.29,332.79,8.13 229.39,335.10,8.13 231.93,339.06,8.13 232.93,344.65,8.13"/>
    </edge>
    <edge id=":135_0" function="internal">
        <lane id=":135_0_0" index="0" disallow="tram rail_urban rail rail_electric pedestrian ship" speed="8.33" length="15.12" width="3.50" shape="224.87,215.64,0.08 224.15,211.52,0.08 222.32,208.60,0.08 219.37,206.88,0.08 215.32,206.35,0.08"/>
    </edge>
    <edge id=":135_1" function="internal">
        <lane id=":135_1_0" index="0" disallow="tram rail_urban rail rail_electric pedestrian ship" speed="8.18" length="15.01" width="3.50" shape="237.39,206.02,0.08 233.32,206.67,0.08 230.46,208.46,0.08 228.81,211.41,0.08 228.37,215.51,0.08"/>
    </edge>
    <edge id=":135_2" function="internal">
        <lane id=":135_2_0" index="0" disallow="tram rail_urban rail rail_electric pedestrian ship" speed="13.89" length="22.07" width="3.50" shape="237.34,202.52,0.08 215.27,202.85,0.08"/>
    </edge>
    <edge id=":135_3" function="internal">
        <lane id=":135_3_0" index="0" disallow="tram rail_urban rail rail_electric pedestrian ship" speed="13.89" length="22.07" width="3.50" shape="215.17,195.85,0.08 237.24,195.52,0.08"/>
        <lane id=":135_3_1" index="1" disallow="tram rail_urban rail rail_electric pedestrian ship" speed="13.89" length="22.07" width="3.50" shape="215.22,199.35,0.08 237.29,199.02,0.08"/>
    </edge>
    <edge id=":135_5" function="internal">
        <lane id=":135_5_0" index="0" disallow="tram rail_urban rail rail_electric pedestrian ship" speed="10.26" length="6.81" width="3.50" shape="215.22,199.35,0.08 220.75,200.29,0.08 221.71,201.00,0.08"/>
    </edge>
    <edge id=":135_6" function="internal">
        <lane id=":135_6_0" index="0" disallow="tram rail_urban rail rail_electric pedestrian ship" speed="3.82" length="2.56" width="3.50" shape="215.22,199.35,0.08 216.54,200.21,0.08 216.99,201.07,0.08"/>
    </edge>
    <edge id=":135_7" function="internal">
        <lane id=":135_7_0" index="0" disallow="tram rail_urban rail rail_electric pedestrian ship" speed="10.26" length="16.73" width="3.50" shape="221.71,201.00,0.08 224.79,203.30,0.08 227.33,208.37,0.08 228.37,215.51,0.08"/>
    </edge>
    <edge id=":135_8" function="internal">
        <lane id=":135_8_0" index="0" disallow="tram rail_urban rail rail_electric pedestrian ship" speed="3.82" length="2.56" width="3.50" shape="216.99,201.07,0.08 216.57,201.96,0.08 215.27,202.85,0.08"/>
    </edge>
    <edge id=":140_0" function="internal">
        <lane id=":140_0_0" index="0" disallow="tram rail_urban rail rail_electric pedestrian ship" speed="13.89" length="25.24" width="3.50" shape="311.59,406.79,-0.03 303.79,406.22,-0.03 298.15,404.99,-0.03 292.99,403.82,-0.03 286.65,403.39,-0.03"/>
    </edge>
    <edge id=":140_1" function="internal">
        <lane id=":140_1_0" index="0" disallow="tram rail_urban rail rail_electric pedestrian ship" speed="8.34" length="15.22" width="3.50" shape="302.20,383.22,0.06 302.85,387.41,0.03 304.63,390.39,0.01 307.54,392.19,-0.01 311.59,392.79,-0.03"/>
    </edge>
    <edge id=":140_2" function="internal">
        <lane id=":140_2_0" index="0" disallow="tram rail_urban rail rail_electric pedestrian ship" speed="7.48" length="12.09" width="3.50" shape="286.30,389.40,-0.03 290.23,388.93,-0.03 293.02,387.77,-0.03 294.68,385.91,-0.03 295.20,383.34,-0.03"/>
    </edge>
    <edge id=":147_0" function="internal">
        <lane id=":147_0_0" index="0" disallow="tram rail_urban rail rail_electric pedestrian ship" speed="13.89" length="25.53" width="3.50" shape="243.17,404.48,-0.06 217.64,405.13,-0.06"/>
        <lane id=":147_0_1" index="1" disallow="tram rail_urban rail rail_electric pedestrian ship" speed="13.89" length="25.53" width="3.50" shape="243.08,400.98,-0.06 217.56,401.63,-0.06"/>
    </edge>
    <edge id=":147_2" function="internal">
        <lane id=":147_2_0" index="0" disallow="tram rail_urban rail rail_electric pedestrian ship" speed="7.69" length="13.16" width="3.50" shape="233.51,383.65,-0.06 234.10,386.73,-0.06 235.85,388.90,-0.06 238.75,390.15,-0.06 242.82,390.49,-0.06"/>
    </edge>
    <edge id=":147_3" function="internal">
        <lane id=":147_3_0" index="0" disallow="tram rail_urban rail rail_electric pedestrian ship" speed="8.65" length="16.38" width="3.50" shape="217.29,391.13,-0.06 222.86,390.54,-0.06 226.84,389.10,-0.06 229.22,386.81,-0.06 230.01,383.66,-0.06"/>
    </edge>
    <edge id=":147_4" function="internal">
        <lane id=":147_4_0" index="0" disallow="tram rail_urban rail rail_electric pedestrian ship" speed="13.89" length="25.53" width="3.50" shape="217.29,391.13,-0.06 242.82,390.49,-0.06"/>
        <lane id=":147_4_1" index="1" disallow="tram rail_urban rail rail_electric pedestrian ship" speed="13.89" length="25.53" width="3.50" shape="217.38,394.63,-0.06 242.90,393.99,-0.06"/>
    </edge>
    <edge id=":152_0" function="internal">
        <lane id=":152_0_0" index="0" disallow="tram rail_urban rail rail_electric pedestrian ship" speed="13.89" length="32.44" width="3.50" shape="167.86,406.38 135.43,407.19"/>
        <lane id=":152_0_1" index="1" disallow="tram rail_urban rail rail_electric pedestrian ship" speed="13.89" length="32.44" width="3.50" shape="167.77,402.88 135.34,403.69"/>
    </edge>
    <edge id=":152_2" function="internal">
        <lane id=":152_2_0" index="0" disallow="tram rail_urban rail rail_electric pedestrian ship" speed="11.78" length="15.96" width="3.50" shape="167.77,402.88 159.26,401.83 153.10,398.20 152.98,398.00"/>
    </edge>
    <edge id=":152_8" function="internal">
        <lane id=":152_8_0" index="0" disallow="tram rail_urban rail rail_electric pedestrian ship" speed="11.78" length="15.94" width="3.50" shape="152.98,398.00 149.31,391.99 147.88,383.20"/>
    </edge>
    <edge id=":152_3" function="internal">
        <lane id=":152_3_0" index="0" disallow="tram rail_urban rail rail_electric pedestrian ship" speed="8.23" length="14.97" width="3.50" shape="158.38,382.94 159.04,387.15 160.78,390.13 163.60,391.87 167.51,392.38"/>
    </edge>
    <edge id=":152_4" function="internal">
        <lane id=":152_4_0" index="0" disallow="tram rail_urban rail rail_electric pedestrian ship" speed="11.88" length="32.43" width="3.50" shape="154.88,383.03 153.84,391.88 150.24,398.27 144.07,402.21 135.34,403.69"/>
    </edge>
    <edge id=":152_5" function="internal">
        <lane id=":152_5_0" index="0" disallow="tram rail_urban rail rail_electric pedestrian ship" speed="8.36" length="15.50" width="3.50" shape="135.08,393.20 139.24,392.49 142.17,390.60 143.89,387.53 144.38,383.29"/>
    </edge>
    <edge id=":152_6" function="internal">
        <lane id=":152_6_0" index="0" disallow="tram rail_urban rail rail_electric pedestrian ship" speed="13.89" length="32.44" width="3.50" shape="135.08,393.20 167.51,392.38"/>
        <lane id=":152_6_1" index="1" disallow="tram rail_urban rail rail_electric pedestrian ship" speed="13.89" length="32.44" width="3.50" shape="135.16,396.69 167.60,395.88"/>
    </edge>
    <edge id=":159_0" function="internal">
        <lane id=":159_0_0" index="0" disallow="tram rail_urban rail rail_electric pedestrian ship" speed="13.89" length="22.80" width="3.50" shape="58.80,348.61,0.05 58.60,325.75,0.05"/>
        <lane id=":159_0_1" index="1" disallow="tram rail_urban rail rail_electric pedestrian ship" speed="13.89" length="22.80" width="3.50" shape="62.30,348.50,0.05 62.10,325.76,0.05"/>
    </edge>
    <edge id=":159_2" function="internal">
        <lane id=":159_2_0" index="0" disallow="tram rail_urban rail rail_electric pedestrian ship" speed="7.90" length="13.82" width="3.50" shape="80.23,338.59,0.05 76.87,339.26,0.05 74.51,341.07,0.05 73.15,344.05,0.05 72.79,348.18,0.05"/>
    </edge>
    <edge id=":159_3" function="internal">
        <lane id=":159_3_0" index="0" disallow="tram rail_urban rail rail_electric pedestrian ship" speed="13.89" length="29.45" width="3.50" shape="80.23,338.59,0.05 50.79,339.23,0.05"/>
    </edge>
    <edge id=":159_4" function="internal">
        <lane id=":159_4_0" index="0" disallow="tram rail_urban rail rail_electric pedestrian ship" speed="10.44" length="25.27" width="3.50" shape="80.23,338.59,0.05 72.29,337.94,0.05 66.62,335.58,0.05 63.22,331.52,0.05 62.10,325.76,0.05"/>
    </edge>
    <edge id=":159_5" function="internal">
        <lane id=":159_5_0" index="0" disallow="tram rail_urban rail rail_electric pedestrian ship" speed="7.83" length="13.69" width="3.50" shape="72.60,325.79,0.05 73.07,329.92,0.05 74.48,332.85,0.05 76.84,334.57,0.05 80.16,335.10,0.05"/>
    </edge>
    <edge id=":159_6" function="internal">
        <lane id=":159_6_0" index="0" disallow="tram rail_urban rail rail_electric pedestrian ship" speed="13.89" length="22.45" width="3.50" shape="72.60,325.79,0.05 72.79,348.18,0.05"/>
        <lane id=":159_6_1" index="1" disallow="tram rail_urban rail rail_electric pedestrian ship" speed="13.89" length="22.45" width="3.50" shape="69.10,325.78,0.05 69.29,348.28,0.05"/>
    </edge>
    <edge id=":159_8" function="internal">
        <lane id=":159_8_0" index="0" disallow="tram rail_urban rail rail_electric pedestrian ship" speed="10.69" length="11.87" width="3.50" shape="69.10,325.78,0.05 67.94,331.51,0.05 64.51,335.67,0.05 63.94,335.92,0.05"/>
    </edge>
    <edge id=":159_12" function="internal">
        <lane id=":159_12_0" index="0" disallow="tram rail_urban rail rail_electric pedestrian ship" speed="10.69" length="13.70" width="3.50" shape="63.94,335.92,0.05 58.79,338.24,0.05 50.79,339.23,0.05"/>
    </edge>
    <edge id=":159_9" function="internal">
        <lane id=":159_9_0" index="0" disallow="tram rail_urban rail rail_electric pedestrian ship" speed="8.15" length="14.37" width="3.50" shape="50.72,335.73,0.05 54.16,335.04,0.05 56.62,333.15,0.05 58.10,330.05,0.05 58.60,325.75,0.05"/>
    </edge>
    <edge id=":159_10" function="internal">
        <lane id=":159_10_0" index="0" disallow="tram rail_urban rail rail_electric pedestrian ship" speed="13.89" length="29.45" width="3.50" shape="50.72,335.73,0.05 80.16,335.10,0.05"/>
    </edge>
    <edge id=":159_11" function="internal">
        <lane id=":159_11_0" index="0" disallow="tram rail_urban rail rail_electric pedestrian ship" speed="10.58" length="25.31" width="3.50" shape="50.72,335.73,0.05 58.69,336.37,0.05 64.45,338.67,0.05 67.98,342.64,0.05 69.29,348.28,0.05"/>
    </edge>
    <edge id=":172_0" function="internal">
        <lane id=":172_0_0" index="0" disallow="tram rail_urban rail rail_electric pedestrian ship" speed="13.89" length="28.49" width="3.50" shape="80.01,201.85,-0.01 51.52,202.00,-0.01"/>
    </edge>
    <edge id=":172_1" function="internal">
        <lane id=":172_1_0" index="0" disallow="tram rail_urban rail rail_electric pedestrian ship" speed="13.89" length="38.24" width="3.50" shape="80.01,201.85,-0.01 74.44,200.53,-0.01 67.43,196.51,-0.01 58.97,189.81,-0.01 49.07,180.41,-0.01"/>
    </edge>
    <edge id=":172_2" function="internal">
        <lane id=":172_2_0" index="0" disallow="tram rail_urban rail rail_electric pedestrian ship" speed="12.15" length="34.21" width="3.50" shape="80.01,201.85,-0.01 72.33,200.34,-0.01 66.85,195.74,-0.01 63.58,188.03,-0.01 62.51,177.23,-0.01"/>
    </edge>
    <edge id=":172_3" function="internal">
        <lane id=":172_3_0" index="0" disallow="tram rail_urban rail rail_electric pedestrian ship" speed="10.22" length="23.83" width="3.50" shape="73.01,177.25,-0.01 73.42,186.50,-0.01 74.72,193.09,-0.01 76.91,197.04,-0.01 79.99,198.35,-0.01"/>
    </edge>
    <edge id=":172_4" function="internal">
        <lane id=":172_4_0" index="0" disallow="tram rail_urban rail rail_electric pedestrian ship" speed="13.89" length="30.50" width="3.50" shape="73.01,177.25,-0.01 72.92,207.76,-0.01"/>
        <lane id=":172_4_1" index="1" disallow="tram rail_urban rail rail_electric pedestrian ship" speed="13.89" length="30.50" width="3.50" shape="69.51,177.25,-0.01 69.42,207.75,-0.01"/>
    </edge>
    <edge id=":172_6" function="internal">
        <lane id=":172_6_0" index="0" disallow="tram rail_urban rail rail_electric pedestrian ship" speed="12.29" length="20.29" width="3.50" shape="69.51,177.25,-0.01 68.36,188.04,-0.01 64.98,195.76,-0.01 64.21,196.40,-0.01"/>
    </edge>
    <edge id=":172_7" function="internal">
        <lane id=":172_7_0" index="0" disallow="tram rail_urban rail rail_electric pedestrian ship" speed="8.17" length="9.23" width="3.50" shape="69.51,177.25,-0.01 67.68,182.56,-0.01 64.24,183.66,-0.01"/>
    </edge>
    <edge id=":172_16" function="internal">
        <lane id=":172_16_0" index="0" disallow="tram rail_urban rail rail_electric pedestrian ship" speed="12.29" length="14.29" width="3.50" shape="64.21,196.40,-0.01 59.36,200.41,-0.01 51.52,202.00,-0.01"/>
    </edge>
    <edge id=":172_17" function="internal">
        <lane id=":172_17_0" index="0" disallow="tram rail_urban rail rail_electric pedestrian ship" speed="8.17" length="14.41" width="3.50" shape="64.24,183.66,-0.01 63.16,184.00,-0.01 57.32,182.24,-0.01 51.56,177.95,-0.01"/>
    </edge>
    <edge id=":172_8" function="internal">
        <lane id=":172_8_0" index="0" disallow="tram rail_urban rail rail_electric pedestrian ship" speed="8.59" length="26.11" width="3.50" shape="51.50,198.50,-0.01 57.12,197.34,-0.01 58.58,193.94,-0.01 55.90,188.29,-0.01 49.07,180.41,-0.01"/>
    </edge>
    <edge id=":172_9" function="internal">
        <lane id=":172_9_0" index="0" disallow="tram rail_urban rail rail_electric pedestrian ship" speed="10.36" length="24.26" width="3.50" shape="51.50,198.50,-0.01 54.76,197.15,-0.01 57.10,193.16,-0.01 58.52,186.51,-0.01 59.01,177.22,-0.01"/>
    </edge>
    <edge id=":172_10" function="internal">
        <lane id=":172_10_0" index="0" disallow="tram rail_urban rail rail_electric pedestrian ship" speed="13.89" length="28.49" width="3.50" shape="51.50,198.50,-0.01 79.99,198.35,-0.01"/>
    </edge>
    <edge id=":172_11" function="internal">
        <lane id=":172_11_0" index="0" disallow="tram rail_urban rail rail_electric pedestrian ship" speed="9.92" length="22.40" width="3.50" shape="51.50,198.50,-0.01 59.35,199.04,-0.01 64.96,200.76,-0.01 68.31,203.67,-0.01 69.42,207.75,-0.01"/>
    </edge>
    <edge id=":172_12" function="internal">
        <lane id=":172_12_0" index="0" disallow="tram rail_urban rail rail_electric pedestrian ship" speed="7.02" length="10.64" width="3.50" shape="58.92,207.72,-0.01 58.47,205.20,-0.01 57.08,203.41,-0.01 54.77,202.34,-0.01 51.52,202.00,-0.01"/>
    </edge>
    <edge id=":172_13" function="internal">
        <lane id=":172_13_0" index="0" disallow="tram rail_urban rail rail_electric pedestrian ship" speed="13.89" length="29.73" width="3.50" shape="58.92,207.72,-0.01 58.39,200.24,-0.01 56.65,192.98,-0.01 53.58,186.27,-0.01 49.07,180.41,-0.01"/>
    </edge>
    <edge id=":172_14" function="internal">
        <lane id=":172_14_0" index="0" disallow="tram rail_urban rail rail_electric pedestrian ship" speed="13.89" length="30.50" width="3.50" shape="58.92,207.72,-0.01 59.01,177.22,-0.01"/>
        <lane id=":172_14_1" index="1" disallow="tram rail_urban rail rail_electric pedestrian ship" speed="13.89" length="30.50" width="3.50" shape="62.42,207.73,-0.01 62.51,177.23,-0.01"/>
    </edge>
    <edge id=":189_0" function="internal">
        <lane id=":189_0_0" index="0" disallow="tram rail_urban rail rail_electric pedestrian ship" speed="13.89" length="22.09" width="3.50" shape="327.30,140.02,0.06 305.21,139.96,0.06"/>
    </edge>
    <edge id=":189_1" function="internal">
        <lane id=":189_1_0" index="0" disallow="tram rail_urban rail rail_electric pedestrian ship" speed="9.95" length="7.12" width="3.50" shape="327.30,140.02,0.06 321.70,139.08,0.06 320.52,138.25,0.06"/>
    </edge>
    <edge id=":189_6" function="internal">
        <lane id=":189_6_0" index="0" disallow="tram rail_urban rail rail_electric pedestrian ship" speed="9.95" length="15.25" width="3.50" shape="320.52,138.25,0.06 317.69,136.28,0.06 315.29,131.62,0.06 314.49,125.11,0.06"/>
    </edge>
    <edge id=":189_2" function="internal">
        <lane id=":189_2_0" index="0" disallow="tram rail_urban rail rail_electric pedestrian ship" speed="8.68" length="16.75" width="3.50" shape="317.99,125.11,0.06 318.57,130.09,0.06 320.32,133.66,0.06 323.23,135.80,0.06 327.31,136.52,0.06"/>
    </edge>
    <edge id=":189_3" function="internal">
        <lane id=":189_3_0" index="0" disallow="tram rail_urban rail rail_electric pedestrian ship" speed="9.92" length="22.32" width="3.50" shape="317.99,125.11,0.06 317.19,131.62,0.06 314.79,136.27,0.06 310.80,139.05,0.06 305.21,139.96,0.06"/>
    </edge>
    <edge id=":189_4" function="internal">
        <lane id=":189_4_0" index="0" disallow="tram rail_urban rail rail_electric pedestrian ship" speed="8.64" length="16.67" width="3.50" shape="305.22,136.46,0.06 309.28,135.76,0.06 312.17,133.64,0.06 313.91,130.08,0.06 314.49,125.11,0.06"/>
    </edge>
    <edge id=":189_5" function="internal">
        <lane id=":189_5_0" index="0" disallow="tram rail_urban rail rail_electric pedestrian ship" speed="13.89" length="22.09" width="3.50" shape="305.22,136.46,0.06 327.31,136.52,0.06"/>
    </edge>
    <edge id=":196_0" function="internal">
        <lane id=":196_0_0" index="0" disallow="tram rail_urban rail rail_electric pedestrian ship" speed="9.29" length="15.36" width="3.50" shape="102.08,10.64 98.60,8.67 95.07,8.04 91.51,8.75 87.91,10.81"/>
    </edge>
    <edge id=":196_1" function="internal">
        <lane id=":196_1_0" index="0" disallow="tram rail_urban rail rail_electric pedestrian ship" speed="13.89" length="18.06" width="3.50" shape="103.61,5.32 98.59,5.73 95.14,6.42 92.00,7.93 87.91,10.81"/>
        <lane id=":196_1_1" index="1" disallow="tram rail_urban rail rail_electric pedestrian ship" speed="13.89" length="18.06" width="3.50" shape="103.35,1.83 97.74,2.30 93.88,3.08 90.37,4.78 85.80,8.02"/>
    </edge>
    <edge id=":196_3" function="internal">
        <lane id=":196_3_0" index="0" disallow="tram rail_urban rail rail_electric pedestrian ship" speed="13.89" length="24.13" width="3.50" shape="79.48,-0.37 85.50,-4.66 90.11,-6.94 95.19,-8.01 102.58,-8.64"/>
        <lane id=":196_3_1" index="1" disallow="tram rail_urban rail rail_electric pedestrian ship" speed="13.89" length="24.13" width="3.50" shape="81.58,2.43 87.12,-1.51 91.37,-3.60 96.04,-4.57 102.84,-5.15"/>
    </edge>
    <edge id=":200_0" function="internal">
        <lane id=":200_0_0" index="0" disallow="tram rail_urban rail rail_electric pedestrian ship" speed="13.28" length="29.41" width="3.50" shape="172.65,202.60 167.74,204.39 163.38,208.76 159.56,215.72 156.29,225.25"/>
    </edge>
    <edge id=":200_1" function="internal">
        <lane id=":200_1_0" index="0" disallow="tram rail_urban rail rail_electric pedestrian ship" speed="13.89" length="28.77" width="3.50" shape="172.65,202.60 166.19,205.29 160.96,210.38 155.74,215.59 149.33,218.64"/>
    </edge>
    <edge id=":200_2" function="internal">
        <lane id=":200_2_0" index="0" disallow="tram rail_urban rail rail_electric pedestrian ship" speed="12.32" length="26.99" width="3.50" shape="167.12,198.54 165.70,206.30 162.26,212.24 156.80,216.35 149.33,218.64"/>
        <lane id=":200_2_1" index="1" disallow="tram rail_urban rail rail_electric pedestrian ship" speed="11.30" length="26.99" width="3.50" shape="163.63,198.37 162.44,204.87 159.56,209.83 155.01,213.27 148.77,215.19"/>
    </edge>
    <edge id=":205_0" function="internal">