<?xml version="1.0" encoding="UTF-8"?>

<!-- generated on 05/16/19 16:56:58 by Eclipse SUMO duarouter Version 1.2.0
<configuration xmlns:xsi="http://www.w3.org/2001/XMLSchema-instance" xsi:noNamespaceSchemaLocation="http://sumo.dlr.de/xsd/duarouterConfiguration.xsd">

    <input>
        <net-file value="Town03.net.xml"/>
        <route-files value="trips.trips.xml"/>
    </input>

    <output>
        <output-file value="Town03.rou.xml"/>
        <alternatives-output value="Town03.rou.alt.xml"/>
    </output>

    <time>
        <begin value="0"/>
        <end value="100.0"/>
    </time>

    <report>
        <no-warnings value="true"/>
        <ignore-errors value="true"/>
        <no-step-log value="true"/>
    </report>

</configuration>
-->

<routes xmlns:xsi="http://www.w3.org/2001/XMLSchema-instance" xsi:noNamespaceSchemaLocation="http://sumo.dlr.de/xsd/routes_file.xsd">
    <vehicle id="0" depart="10000.00">
        <route edges="3.0.00 -20.0.00 -21.0.00 -22.0.00 -23.0.00 -24.0.00 -32.0.00 -33.0.00 -34.0.00 -72.0.00"/>
    </vehicle>
    <vehicle id="1" depart="10001.00">
        <route edges="20.0.00 19.0.00 18.0.00 17.0.00 80.0.00 79.2.76 79.0.00 78.0.00 -69.0.00 -5.0.00 -6.0.00 82.0.00 81.0.00"/>
    </vehicle>
    <vehicle id="2" depart="10002.00">
        <route edges="-70.0.00 -53.0.00 -54.0.00 -84.0.00 -85.0.00 -62.0.00"/>
    </vehicle>
    <vehicle id="3" depart="10003.00">
        <route edges="83.0.00 24.0.00 4.0.00 3.0.00 2.0.00 1.0.00 0.0.00 -78.0.00 -79.0.00 -79.2.76 -80.0.00 -17.0.00"/>
    </vehicle>
    <vehicle id="4" depart="10004.00">
        <route edges="-3.0.00 -64.0.00"/>
    </vehicle>
    <vehicle id="5" depart="10005.00">
        <route edges="29.0.00 -25.0.00 -26.0.00 -63.0.00 -64.0.00 20.0.00 19.0.00 18.0.00 17.0.00 80.0.00 79.2.76 79.0.00 78.0.00 -69.0.00"/>
    </vehicle>
    <vehicle id="6" depart="10006.00">
        <route edges="-2.0.00 -3.0.00 -4.0.00 -24.0.00 -83.0.00"/>
    </vehicle>
    <vehicle id="7" depart="10007.00">
        <route edges="-83.0.00 -54.0.00 -84.0.00 -85.0.00 -62.0.00 -50.0.00 -51.0.00 54.0.00 83.0.00 24.0.00 23.0.00"/>
    </vehicle>
    <vehicle id="8" depart="10008.00">
        <route edges="73.0.00 72.0.00 71.0.00 70.0.00 69.0.00 -0.0.00 -1.0.00 -2.0.00 -3.0.00 -64.0.00 20.0.00 19.0.00 18.0.00 17.0.00 -81.0.00 -61.0.00 47.0.00"/>
    </vehicle>
    <vehicle id="9" depart="10009.00">
        <route edges="69.0.00 -0.0.00 -1.0.00 -2.0.00 -3.0.00 -64.0.00 20.0.00 2.0.00 1.0.00 -46.0.00 -18.0.00"/>
    </vehicle>
    <vehicle id="10" depart="10010.00">
        <route edges="-7.0.00 -8.0.00 35.0.00 15.0.00 -29.0.00"/>
    </vehicle>
    <vehicle id="11" depart="10011.00">
        <route edges="83.0.00 24.0.00 4.0.00 3.0.00 2.0.00 1.0.00"/>
    </vehicle>
    <vehicle id="12" depart="10012.00">
        <route edges="-48.0.00 -8.0.00 35.0.00 15.0.00 -29.0.00 -30.0.00 1.0.00 -46.0.00 -47.0.00"/>
    </vehicle>
    <vehicle id="13" depart="10013.00">
        <route edges="-8.0.00 35.0.00 15.0.00 -29.0.00 -30.0.00 1.0.00 -46.0.00 17.0.00 80.0.00 79.2.76 79.0.00 78.0.00 -69.0.00"/>
    </vehicle>
    <vehicle id="14" depart="10014.00">
        <route edges="69.0.00 -0.0.00 -1.0.00 -2.0.00 -3.0.00 -64.0.00 20.0.00 19.0.00 18.0.00 17.0.00 80.0.00 79.2.76 79.0.00 78.0.00 -69.0.00"/>
    </vehicle>
    <vehicle id="15" depart="10015.00">
        <route edges="23.0.00 22.0.00 21.0.00 64.0.00 63.0.00 -86.0.00 -13.0.00 -14.0.00"/>
    </vehicle>
    <vehicle id="17" depart="10017.00">
        <route edges="-2.0.00 -3.0.00 -64.0.00 20.0.00 2.0.00 1.0.00 -46.0.00 -18.0.00"/>
    </vehicle>
 
</routes>
