<?xml version="1.0" encoding="UTF-8"?>

<!-- generated on Wed May 29 17:20:48 2019 by Eclipse SUMO netconvert Version 1.2.0
<configuration xmlns:xsi="http://www.w3.org/2001/XMLSchema-instance" xsi:noNamespaceSchemaLocation="http://sumo.dlr.de/xsd/netconvertConfiguration.xsd">

    <input>
        <opendrive-files value="simulations/Town06/Town06.xodr"/>
    </input>

    <output>
        <output-file value="simulations/Town06/Town06.net.xml"/>
    </output>

    <tls_building>
        <tls.left-green.time value="0"/>
    </tls_building>

    <junctions>
        <rectangular-lane-cut value="true"/>
    </junctions>

</configuration>
-->

<net version="1.1" junctionCornerDetail="5" rectangularLaneCut="true" limitTurnSpeed="5.50" xmlns:xsi="http://www.w3.org/2001/XMLSchema-instance" xsi:noNamespaceSchemaLocation="http://sumo.dlr.de/xsd/net_file.xsd">

    <location netOffset="357.36,403.31" convBoundary="0.00,0.00,1020.05,545.81" origBoundary="-368.99,-411.46,670.40,150.64" projParameter="!"/>

    <type id="bidirectional" priority="1" speed="1.39" disallow="tram rail_urban rail rail_electric pedestrian ship" width="3.65"/>
    <type id="border" priority="0" speed="1.39" disallow="all" discard="1" width="0.10"/>
    <type id="driving" priority="1" speed="13.89" disallow="tram rail_urban rail rail_electric pedestrian ship" width="3.65"/>
    <type id="entry" priority="1" speed="22.22" disallow="tram rail_urban rail rail_electric pedestrian ship" width="3.65"/>
    <type id="exit" priority="1" speed="22.22" disallow="tram rail_urban rail rail_electric pedestrian ship" width="3.65"/>
    <type id="median" priority="0" speed="1.39" disallow="all" discard="1" width="0.10"/>
    <type id="mwyEntry" priority="1" speed="22.22" allow="private emergency authority army vip passenger hov taxi bus coach delivery truck trailer motorcycle evehicle custom1 custom2" width="3.65"/>
    <type id="mwyExit" priority="1" speed="22.22" allow="private emergency authority army vip passenger hov taxi bus coach delivery truck trailer motorcycle evehicle custom1 custom2" width="3.65"/>
    <type id="none" priority="0" speed="1.39" disallow="all" discard="1" width="1.00"/>
    <type id="offRamp" priority="1" speed="22.22" allow="private emergency authority army vip passenger hov taxi bus coach delivery truck trailer motorcycle evehicle custom1 custom2" width="3.65"/>
    <type id="onRamp" priority="1" speed="22.22" allow="private emergency authority army vip passenger hov taxi bus coach delivery truck trailer motorcycle evehicle custom1 custom2" width="3.65"/>
    <type id="parking" priority="1" speed="1.39" disallow="tram rail_urban rail rail_electric pedestrian ship" width="2.50"/>
    <type id="rail" priority="3" speed="33.33" allow="rail_urban rail rail_electric" width="3.65"/>
    <type id="restricted" priority="0" speed="13.89" disallow="all" width="3.65"/>
    <type id="roadWorks" priority="0" speed="1.39" allow="authority" width="3.65"/>
    <type id="shoulder" priority="0" speed="1.39" disallow="all" discard="1" width="1.00"/>
    <type id="special1" priority="1" speed="22.22" allow="custom1" discard="1" width="3.65"/>
    <type id="special2" priority="1" speed="22.22" allow="custom2" discard="1" width="3.65"/>
    <type id="special3" priority="1" speed="22.22" allow="custom1 custom2" discard="1" width="3.65"/>
    <type id="stop" priority="1" speed="13.89" disallow="tram rail_urban rail rail_electric pedestrian ship" width="3.65"/>
    <type id="tram" priority="2" speed="13.89" allow="tram" width="3.65"/>

    <edge id=":104_0" function="internal">
        <lane id=":104_0_0" index="0" disallow="tram rail_urban rail rail_electric pedestrian ship" speed="13.89" length="17.59" width="3.50" shape="889.71,347.88 892.93,349.64 896.47,351.01 900.82,351.91 906.50,352.24"/>
    </edge>
    <edge id=":104_1" function="internal">
        <lane id=":104_1_0" index="0" disallow="tram rail_urban rail rail_electric pedestrian ship" speed="13.89" length="17.35" width="3.50" shape="889.14,352.23 906.50,352.24"/>
        <lane id=":104_1_1" index="1" disallow="tram rail_urban rail rail_electric pedestrian ship" speed="13.89" length="17.35" width="3.50" shape="889.14,355.73 906.49,355.74"/>
        <lane id=":104_1_2" index="2" disallow="tram rail_urban rail rail_electric pedestrian ship" speed="13.89" length="17.35" width="3.50" shape="889.14,359.23 906.49,359.24"/>
        <lane id=":104_1_3" index="3" disallow="tram rail_urban rail rail_electric pedestrian ship" speed="13.89" length="17.35" width="3.50" shape="889.14,362.73 906.49,362.74"/>
        <lane id=":104_1_4" index="4" disallow="tram rail_urban rail rail_electric pedestrian ship" speed="13.89" length="17.35" width="3.50" shape="889.14,366.23 906.49,366.24"/>
    </edge>
    <edge id=":107_0" function="internal">
        <lane id=":107_0_0" index="0" disallow="tram rail_urban rail rail_electric pedestrian ship" speed="13.89" length="25.45" width="3.50" shape="1028.14,245.94 1028.42,271.39"/>
        <lane id=":107_0_1" index="1" disallow="tram rail_urban rail rail_electric pedestrian ship" speed="13.89" length="25.45" width="3.50" shape="1024.64,245.98 1024.92,271.42"/>
        <lane id=":107_0_2" index="2" disallow="tram rail_urban rail rail_electric pedestrian ship" speed="13.89" length="25.45" width="3.50" shape="1021.14,246.02 1021.42,271.46"/>
        <lane id=":107_0_3" index="3" disallow="tram rail_urban rail rail_electric pedestrian ship" speed="13.89" length="25.45" width="3.50" shape="1017.64,246.05 1017.92,271.50"/>
        <lane id=":107_0_4" index="4" disallow="tram rail_urban rail rail_electric pedestrian ship" speed="13.89" length="25.45" width="3.50" shape="1014.14,246.09 1014.42,271.54"/>
    </edge>
    <edge id=":107_5" function="internal">
        <lane id=":107_5_0" index="0" disallow="tram rail_urban rail rail_electric pedestrian ship" speed="11.79" length="4.03" width="3.50" shape="1008.47,251.85 1012.46,252.40"/>
    </edge>
    <edge id=":107_6" function="internal">
        <lane id=":107_6_0" index="0" disallow="tram rail_urban rail rail_electric pedestrian ship" speed="10.74" length="4.05" width="3.50" shape="1008.49,255.35 1012.50,255.90"/>
    </edge>
    <edge id=":107_7" function="internal">
        <lane id=":107_7_0" index="0" disallow="tram rail_urban rail rail_electric pedestrian ship" speed="9.57" length="4.08" width="3.50" shape="1008.50,258.85 1012.54,259.40"/>
    </edge>
    <edge id=":107_8" function="internal">
        <lane id=":107_8_0" index="0" disallow="tram rail_urban rail rail_electric pedestrian ship" speed="8.24" length="4.12" width="3.50" shape="1008.51,262.35 1012.59,262.91"/>
    </edge>
    <edge id=":107_9" function="internal">
        <lane id=":107_9_0" index="0" disallow="tram rail_urban rail rail_electric pedestrian ship" speed="6.65" length="4.36" width="3.50" shape="1008.53,265.85 1011.08,266.20 1012.62,267.09"/>
    </edge>
    <edge id=":107_10" function="internal">
        <lane id=":107_10_0" index="0" disallow="tram rail_urban rail rail_electric pedestrian ship" speed="11.79" length="27.76" width="3.50" shape="1012.46,252.40 1017.12,253.04 1023.33,256.69 1027.09,262.81 1028.42,271.39"/>
    </edge>
    <edge id=":107_11" function="internal">
        <lane id=":107_11_0" index="0" disallow="tram rail_urban rail rail_electric pedestrian ship" speed="10.74" length="22.12" width="3.50" shape="1012.50,255.90 1015.61,256.33 1020.72,259.34 1023.83,264.37 1024.92,271.42"/>
    </edge>
    <edge id=":107_12" function="internal">
        <lane id=":107_12_0" index="0" disallow="tram rail_urban rail rail_electric pedestrian ship" speed="9.57" length="16.48" width="3.50" shape="1012.54,259.40 1014.10,259.62 1018.12,261.98 1020.56,265.92 1021.42,271.46"/>
    </edge>
    <edge id=":107_13" function="internal">
        <lane id=":107_13_0" index="0" disallow="tram rail_urban rail rail_electric pedestrian ship" speed="8.24" length="10.83" width="3.50" shape="1012.59,262.91 1015.52,264.62 1017.29,267.48 1017.92,271.50"/>
    </edge>
    <edge id=":107_14" function="internal">
        <lane id=":107_14_0" index="0" disallow="tram rail_urban rail rail_electric pedestrian ship" speed="6.65" length="4.97" width="3.50" shape="1012.62,267.09 1012.92,267.26 1014.03,269.04 1014.42,271.54"/>
    </edge>
    <edge id=":114_0" function="internal">
        <lane id=":114_0_0" index="0" disallow="tram rail_urban rail rail_electric pedestrian ship" speed="13.89" length="8.29" width="3.01" shape="150.33,253.02 147.87,252.98 146.20,252.82 144.54,252.51 142.12,252.04"/>
    </edge>
    <edge id=":117_0" function="internal">
        <lane id=":117_0_0" index="0" disallow="tram rail_urban rail rail_electric pedestrian ship" speed="13.89" length="16.42" width="3.50" shape="228.13,421.14 223.35,421.67 220.17,422.87 216.98,424.06 212.20,424.59"/>
        <lane id=":117_0_1" index="1" disallow="tram rail_urban rail rail_electric pedestrian ship" speed="13.89" length="16.42" width="3.50" shape="228.15,417.64 223.36,418.17 220.18,419.37 217.00,420.56 212.21,421.09"/>
        <lane id=":117_0_2" index="2" disallow="tram rail_urban rail rail_electric pedestrian ship" speed="13.89" length="16.42" width="3.50" shape="228.16,414.14 223.38,414.67 220.19,415.87 217.01,417.06 212.23,417.59"/>
    </edge>
    <edge id=":117_3" function="internal">
        <lane id=":117_3_0" index="0" disallow="tram rail_urban rail rail_electric pedestrian ship" speed="12.81" length="16.19" width="3.50" shape="228.17,410.64 222.16,410.46 217.52,409.97 214.28,409.17 212.41,408.06"/>
    </edge>
    <edge id=":117_4" function="internal">
        <lane id=":117_4_0" index="0" disallow="tram rail_urban rail rail_electric pedestrian ship" speed="12.13" length="14.48" width="3.50" shape="228.17,410.64 224.11,410.32 220.56,409.39 217.52,407.84 214.98,405.69"/>
    </edge>
    <edge id=":121_0" function="internal">
        <lane id=":121_0_0" index="0" disallow="tram rail_urban rail rail_electric pedestrian ship" speed="9.27" length="19.16" width="3.50" shape="345.06,438.29 344.37,432.50 342.39,428.37 339.12,425.87 334.56,425.03"/>
    </edge>
    <edge id=":121_1" function="internal">
        <lane id=":121_1_0" index="0" disallow="tram rail_urban rail rail_electric pedestrian ship" speed="13.89" length="31.69" width="3.50" shape="348.56,438.27 348.35,406.58"/>
        <lane id=":121_1_1" index="1" disallow="tram rail_urban rail rail_electric pedestrian ship" speed="13.89" length="31.69" width="3.50" shape="352.06,438.24 351.85,406.55"/>
    </edge>
    <edge id=":121_3" function="internal">
        <lane id=":121_3_0" index="0" disallow="tram rail_urban rail rail_electric pedestrian ship" speed="13.89" length="45.85" width="3.50" shape="380.42,421.70 334.57,421.53"/>
        <lane id=":121_3_1" index="1" disallow="tram rail_urban rail rail_electric pedestrian ship" speed="13.89" length="45.85" width="3.50" shape="380.44,418.20 334.59,418.03"/>
        <lane id=":121_3_2" index="2" disallow="tram rail_urban rail rail_electric pedestrian ship" speed="13.89" length="45.85" width="3.50" shape="380.45,414.70 334.60,414.53"/>
    </edge>
    <edge id=":121_6" function="internal">
        <lane id=":121_6_0" index="0" disallow="tram rail_urban rail rail_electric pedestrian ship" speed="13.89" length="31.85" width="3.50" shape="358.85,406.51 359.44,413.56 360.69,420.46 361.94,428.30 362.56,438.17"/>
        <lane id=":121_6_1" index="1" disallow="tram rail_urban rail rail_electric pedestrian ship" speed="13.89" length="31.85" width="3.50" shape="355.35,406.53 355.94,413.59 357.19,420.49 358.44,428.33 359.06,438.20"/>
        <lane id=":121_6_2" index="2" disallow="tram rail_urban rail rail_electric pedestrian ship" speed="13.89" length="31.85" width="3.50" shape="355.35,406.53 355.56,438.22"/>
    </edge>
    <edge id=":121_9" function="internal">
        <lane id=":121_9_0" index="0" disallow="tram rail_urban rail rail_electric pedestrian ship" speed="10.27" length="24.15" width="3.50" shape="355.35,406.53 354.07,410.06 350.19,412.57 343.70,414.06 334.60,414.53"/>
    </edge>
    <edge id=":121_10" function="internal">
        <lane id=":121_10_0" index="0" disallow="tram rail_urban rail rail_electric pedestrian ship" speed="3.82" length="5.11" width="3.50" shape="355.35,406.53 354.48,407.85 353.61,408.29 352.73,407.86 351.85,406.55"/>
    </edge>
    <edge id=":127_0" function="internal">
        <lane id=":127_0_0" index="0" disallow="tram rail_urban rail rail_electric pedestrian ship" speed="13.89" length="26.60" width="3.50" shape="424.49,254.24 451.09,254.13"/>
        <lane id=":127_0_1" index="1" disallow="tram rail_urban rail rail_electric pedestrian ship" speed="13.89" length="26.60" width="3.50" shape="424.50,257.74 451.11,257.63"/>
        <lane id=":127_0_2" index="2" disallow="tram rail_urban rail rail_electric pedestrian ship" speed="13.89" length="26.60" width="3.50" shape="424.52,261.24 451.12,261.13"/>
        <lane id=":127_0_3" index="3" disallow="tram rail_urban rail rail_electric pedestrian ship" speed="13.89" length="26.60" width="3.50" shape="424.53,264.74 451.14,264.63"/>
        <lane id=":127_0_4" index="4" disallow="tram rail_urban rail rail_electric pedestrian ship" speed="13.89" length="26.60" width="3.50" shape="424.55,268.24 451.15,268.13"/>
    </edge>
    <edge id=":127_5" function="internal">
        <lane id=":127_5_0" index="0" disallow="tram rail_urban rail rail_electric pedestrian ship" speed="13.89" length="26.27" width="3.50" shape="424.55,268.24 433.42,268.72 440.54,269.92 446.12,271.35 450.36,272.54"/>
    </edge>
    <edge id=":13.12_0" function="internal">
        <lane id=":13.12_0_0" index="0" disallow="tram rail_urban rail rail_electric pedestrian ship" speed="9.91" length="11.58" width="3.50" shape="203.82,351.99 206.79,352.30 209.43,353.26 211.75,354.84 213.74,357.06"/>
    </edge>
    <edge id=":13.12_1" function="internal">
        <lane id=":13.12_1_0" index="0" disallow="tram rail_urban rail rail_electric pedestrian ship" speed="8.45" length="8.27" width="3.50" shape="203.82,355.49 205.94,355.71 207.82,356.39 209.48,357.52 210.91,359.11"/>
    </edge>
    <edge id=":13.12_2" function="internal">
        <lane id=":13.12_2_0" index="0" disallow="tram rail_urban rail rail_electric pedestrian ship" speed="6.69" length="4.96" width="3.50" shape="203.82,358.99 205.09,359.12 206.22,359.53 207.21,360.21 208.07,361.16"/>
    </edge>
    <edge id=":13.12_3" function="internal">
        <lane id=":13.12_3_0" index="0" disallow="tram rail_urban rail rail_electric pedestrian ship" speed="4.26" length="1.65" width="3.50" shape="203.82,362.49 204.24,362.53 204.62,362.67 204.95,362.89 205.23,363.21"/>
    </edge>
    <edge id=":130_0" function="internal">
        <lane id=":130_0_0" index="0" disallow="tram rail_urban rail rail_electric pedestrian ship" speed="13.89" length="18.32" width="3.50" shape="237.11,157.54 242.47,157.01 246.06,155.82 249.64,154.63 255.00,154.10"/>
        <lane id=":130_0_1" index="1" disallow="tram rail_urban rail rail_electric pedestrian ship" speed="13.89" length="18.32" width="3.50" shape="237.10,161.04 242.46,160.51 246.04,159.32 249.63,158.13 254.99,157.60"/>
        <lane id=":130_0_2" index="2" disallow="tram rail_urban rail rail_electric pedestrian ship" speed="13.89" length="18.32" width="3.50" shape="237.09,164.54 242.45,164.01 246.03,162.82 249.62,161.63 254.98,161.10"/>
    </edge>
    <edge id=":130_3" function="internal">
        <lane id=":130_3_0" index="0" disallow="tram rail_urban rail rail_electric pedestrian ship" speed="13.89" length="17.68" width="3.50" shape="237.08,168.04 242.87,168.05 247.37,168.13 251.12,168.45 254.68,169.14"/>
    </edge>
    <edge id=":133_0" function="internal">
        <lane id=":133_0_0" index="0" disallow="tram rail_urban rail rail_electric pedestrian ship" speed="13.89" length="2.31" width="3.50" shape="346.63,503.84 345.48,501.85"/>
        <lane id=":133_0_1" index="1" disallow="tram rail_urban rail rail_electric pedestrian ship" speed="13.89" length="2.31" width="3.50" shape="350.13,503.83 348.98,501.82"/>
        <lane id=":133_0_2" index="2" disallow="tram rail_urban rail rail_electric pedestrian ship" speed="13.89" length="2.31" width="3.50" shape="353.63,503.82 352.48,501.80"/>
    </edge>
    <edge id=":133_3" function="internal">
        <lane id=":133_3_0" index="0" disallow="tram rail_urban rail rail_electric pedestrian ship" speed="13.89" length="3.91" width="3.50" shape="362.98,501.73 366.36,503.69"/>
        <lane id=":133_3_1" index="1" disallow="tram rail_urban rail rail_electric pedestrian ship" speed="13.89" length="3.91" width="3.50" shape="359.48,501.75 362.86,503.72"/>
        <lane id=":133_3_2" index="2" disallow="tram rail_urban rail rail_electric pedestrian ship" speed="13.89" length="3.91" width="3.50" shape="355.98,501.78 359.36,503.74"/>
    </edge>
    <edge id=":136_0" function="internal">
        <lane id=":136_0_0" index="0" disallow="tram rail_urban rail rail_electric pedestrian ship" speed="13.89" length="32.50" width="3.50" shape="587.47,347.58 592.24,348.85 599.25,350.34 608.39,351.58 619.56,352.10"/>
    </edge>
    <edge id=":136_1" function="internal">
        <lane id=":136_1_0" index="0" disallow="tram rail_urban rail rail_electric pedestrian ship" speed="13.89" length="32.69" width="3.50" shape="586.86,352.08 619.56,352.10"/>
        <lane id=":136_1_1" index="1" disallow="tram rail_urban rail rail_electric pedestrian ship" speed="13.89" length="32.69" width="3.50" shape="586.86,355.58 619.55,355.60"/>
        <lane id=":136_1_2" index="2" disallow="tram rail_urban rail rail_electric pedestrian ship" speed="13.89" length="32.69" width="3.50" shape="586.86,359.08 619.55,359.10"/>
        <lane id=":136_1_3" index="3" disallow="tram rail_urban rail rail_electric pedestrian ship" speed="13.89" length="32.69" width="3.50" shape="586.86,362.58 619.55,362.60"/>
    </edge>
    <edge id=":139_0" function="internal">
        <lane id=":139_0_0" index="0" disallow="tram rail_urban rail rail_electric pedestrian ship" speed="13.89" length="3.91" width="3.50" shape="352.51,57.22 349.12,55.27"/>
        <lane id=":139_0_1" index="1" disallow="tram rail_urban rail rail_electric pedestrian ship" speed="13.89" length="3.91" width="3.50" shape="356.01,57.19 352.62,55.23"/>
        <lane id=":139_0_2" index="2" disallow="tram rail_urban rail rail_electric pedestrian ship" speed="13.89" length="3.91" width="3.50" shape="359.51,57.15 356.12,55.19"/>
    </edge>
    <edge id=":139_3" function="internal">
        <lane id=":139_3_0" index="0" disallow="tram rail_urban rail rail_electric pedestrian ship" speed="13.89" length="2.30" width="3.50" shape="368.85,55.06 370.01,57.04"/>
        <lane id=":139_3_1" index="1" disallow="tram rail_urban rail rail_electric pedestrian ship" speed="13.89" length="2.30" width="3.50" shape="365.35,55.09 366.51,57.08"/>
        <lane id=":139_3_2" index="2" disallow="tram rail_urban rail rail_electric pedestrian ship" speed="13.89" length="2.30" width="3.50" shape="361.85,55.13 363.01,57.11"/>
    </edge>
    <edge id=":142_0" function="internal">
        <lane id=":142_0_0" index="0" disallow="tram rail_urban rail rail_electric pedestrian ship" speed="13.89" length="26.97" width="3.50" shape="348.10,369.86 348.15,363.28 348.56,357.55 349.57,351.20 351.43,342.77"/>
        <lane id=":142_0_1" index="1" disallow="tram rail_urban rail rail_electric pedestrian ship" speed="13.89" length="26.97" width="3.50" shape="351.60,369.84 351.65,363.33 352.05,357.79 353.03,351.71 354.84,343.58"/>
    </edge>
    <edge id=":142_2" function="internal">
        <lane id=":142_2_0" index="0" disallow="tram rail_urban rail rail_electric pedestrian ship" speed="7.12" length="12.87" width="3.50" shape="365.05,346.01 365.08,348.66 366.62,350.55 369.65,351.68 374.19,352.07"/>
    </edge>
    <edge id=":142_3" function="internal">
        <lane id=":142_3_0" index="0" disallow="tram rail_urban rail rail_electric pedestrian ship" speed="13.89" length="25.29" width="3.50" shape="361.65,345.20 359.95,352.72 359.02,358.27 358.65,363.43 358.60,369.79"/>
        <lane id=":142_3_1" index="1" disallow="tram rail_urban rail rail_electric pedestrian ship" speed="13.89" length="25.29" width="3.50" shape="358.24,344.39 356.49,352.22 355.53,358.03 355.15,363.38 355.10,369.82"/>
    </edge>
    <edge id=":142_5" function="internal">
        <lane id=":142_5_0" index="0" disallow="tram rail_urban rail rail_electric pedestrian ship" speed="10.18" length="19.33" width="3.50" shape="333.43,352.04 338.92,351.41 343.18,349.52 346.21,346.37 348.03,341.96"/>
    </edge>
    <edge id=":142_6" function="internal">
        <lane id=":142_6_0" index="0" disallow="tram rail_urban rail rail_electric pedestrian ship" speed="13.89" length="40.75" width="3.50" shape="333.43,355.54 374.18,355.57"/>
        <lane id=":142_6_1" index="1" disallow="tram rail_urban rail rail_electric pedestrian ship" speed="13.89" length="40.75" width="3.50" shape="333.43,359.04 374.18,359.07"/>
        <lane id=":142_6_2" index="2" disallow="tram rail_urban rail rail_electric pedestrian ship" speed="13.89" length="40.75" width="3.50" shape="333.42,362.54 374.18,362.57"/>
    </edge>
    <edge id=":148_0" function="internal">
        <lane id=":148_0_0" index="0" disallow="tram rail_urban rail rail_electric pedestrian ship" speed="4.44" length="8.57" width="3.50" shape="498.31,351.42 498.43,359.18"/>
        <lane id=":148_0_1" index="1" disallow="tram rail_urban rail rail_electric pedestrian ship" speed="9.34" length="8.57" width="3.50" shape="498.34,354.92 496.61,364.73"/>
        <lane id=":148_0_2" index="2" disallow="tram rail_urban rail rail_electric pedestrian ship" speed="13.89" length="8.57" width="3.50" shape="498.36,358.42 496.56,366.18"/>
    </edge>
    <edge id=":148_3" function="internal">
        <lane id=":148_3_0" index="0" disallow="tram rail_urban rail rail_electric pedestrian ship" speed="8.11" length="7.79" width="3.50" shape="498.41,365.76 496.13,366.08 494.99,367.03 494.99,368.58 496.12,370.75"/>
    </edge>
    <edge id=":148_4" function="internal">
        <lane id=":148_4_0" index="0" disallow="tram rail_urban rail rail_electric pedestrian ship" speed="10.00" length="12.21" width="3.50" shape="498.41,365.76 494.36,366.22 492.15,367.54 491.78,369.71 493.24,372.74"/>
    </edge>
    <edge id=":152_0" function="internal">
        <lane id=":152_0_0" index="0" disallow="tram rail_urban rail rail_electric pedestrian ship" speed="13.89" length="10.45" width="3.50" shape="137.70,153.80 148.15,153.82"/>
    </edge>
    <edge id=":152_1" function="internal">
        <lane id=":152_1_0" index="0" disallow="tram rail_urban rail rail_electric pedestrian ship" speed="13.89" length="9.88" width="3.50" shape="138.32,168.74 141.20,168.21 143.19,167.93 145.20,167.83 148.13,167.82"/>
    </edge>
    <edge id=":155_0" function="internal">
        <lane id=":155_0_0" index="0" disallow="tram rail_urban rail rail_electric pedestrian ship" speed="8.95" length="18.15" width="3.50" shape="369.92,140.39 370.46,145.87 372.28,149.78 375.37,152.13 379.74,152.91"/>
    </edge>
    <edge id=":155_1" function="internal">
        <lane id=":155_1_0" index="0" disallow="tram rail_urban rail rail_electric pedestrian ship" speed="10.19" length="23.85" width="3.50" shape="366.42,140.33 367.16,147.37 369.62,152.40 373.82,155.41 379.74,156.41"/>
    </edge>
    <edge id=":155_2" function="internal">
        <lane id=":155_2_0" index="0" disallow="tram rail_urban rail rail_electric pedestrian ship" speed="13.89" length="35.60" width="3.50" shape="366.42,140.33 366.81,150.11 367.89,158.12 368.97,166.13 369.36,175.91"/>
        <lane id=":155_2_1" index="1" disallow="tram rail_urban rail rail_electric pedestrian ship" speed="13.89" length="35.60" width="3.50" shape="366.42,140.33 365.86,175.85"/>
        <lane id=":155_2_2" index="2" disallow="tram rail_urban rail rail_electric pedestrian ship" speed="13.89" length="35.60" width="3.50" shape="362.92,140.27 362.36,175.80"/>
    </edge>
    <edge id=":155_5" function="internal">
        <lane id=":155_5_0" index="0" disallow="tram rail_urban rail rail_electric pedestrian ship" speed="10.40" length="24.35" width="3.50" shape="336.45,154.39 343.35,153.51 348.32,150.84 351.34,146.38 352.42,140.11"/>
    </edge>
    <edge id=":155_6" function="internal">
        <lane id=":155_6_0" index="0" disallow="tram rail_urban rail rail_electric pedestrian ship" speed="11.48" length="29.94" width="3.50" shape="336.44,157.89 344.86,156.80 350.91,153.49 354.60,147.94 355.92,140.16"/>
    </edge>
    <edge id=":155_7" function="internal">
        <lane id=":155_7_0" index="0" disallow="tram rail_urban rail rail_electric pedestrian ship" speed="12.47" length="35.54" width="3.50" shape="336.42,161.39 346.36,160.09 353.50,156.13 357.86,149.51 359.42,140.22"/>
    </edge>
    <edge id=":155_8" function="internal">
        <lane id=":155_8_0" index="0" disallow="tram rail_urban rail rail_electric pedestrian ship" speed="13.89" length="43.37" width="3.50" shape="336.42,161.39 379.74,163.41"/>
        <lane id=":155_8_1" index="1" disallow="tram rail_urban rail rail_electric pedestrian ship" speed="13.89" length="43.37" width="3.50" shape="336.41,164.89 379.74,166.91"/>
    </edge>
    <edge id=":155_10" function="internal">
        <lane id=":155_10_0" index="0" disallow="tram rail_urban rail rail_electric pedestrian ship" speed="13.89" length="35.53" width="3.50" shape="351.86,175.63 352.42,140.11"/>
        <lane id=":155_10_1" index="1" disallow="tram rail_urban rail rail_electric pedestrian ship" speed="13.89" length="35.53" width="3.50" shape="355.36,175.69 355.92,140.16"/>
    </edge>
    <edge id=":155_12" function="internal">
        <lane id=":155_12_0" index="0" disallow="tram rail_urban rail rail_electric pedestrian ship" speed="12.43" length="35.18" width="3.50" shape="355.36,175.69 357.00,167.26 361.61,161.24 369.19,157.62 379.74,156.41"/>
    </edge>
    <edge id=":155_13" function="internal">
        <lane id=":155_13_0" index="0" disallow="tram rail_urban rail rail_electric pedestrian ship" speed="11.44" length="29.62" width="3.50" shape="358.86,175.74 360.26,168.82 364.21,163.87 370.70,160.91 379.74,159.91"/>
    </edge>
    <edge id=":16.15_0" function="internal">
        <lane id=":16.15_0_0" index="0" disallow="tram rail_urban rail rail_electric pedestrian ship" speed="13.89" length="8.48" width="3.50" shape="379.68,352.07 382.24,351.81 383.96,351.24 385.67,350.71 388.23,350.57"/>
        <lane id=":16.15_0_1" index="1" disallow="tram rail_urban rail rail_electric pedestrian ship" speed="13.89" length="8.48" width="3.50" shape="379.68,355.57 382.18,355.31 383.87,354.74 385.55,354.21 388.05,354.07"/>
        <lane id=":16.15_0_2" index="2" disallow="tram rail_urban rail rail_electric pedestrian ship" speed="13.89" length="8.48" width="3.50" shape="379.67,359.07 382.13,358.81 383.78,358.24 385.42,357.71 387.87,357.56"/>
        <lane id=":16.15_0_3" index="3" disallow="tram rail_urban rail rail_electric pedestrian ship" speed="13.89" length="8.48" width="3.50" shape="379.67,362.57 382.08,362.29 383.69,361.70 385.30,361.16 387.70,361.06"/>
    </edge>
    <edge id=":16.16.01_0" function="internal">
        <lane id=":16.16.01_0_0" index="0" disallow="tram rail_urban rail rail_electric pedestrian ship" speed="13.89" length="2.30" width="3.50" shape="401.64,352.24 402.41,349.80"/>
        <lane id=":16.16.01_0_1" index="1" disallow="tram rail_urban rail rail_electric pedestrian ship" speed="13.89" length="2.30" width="3.50" shape="401.08,355.69 401.83,353.26"/>
        <lane id=":16.16.01_0_2" index="2" disallow="tram rail_urban rail rail_electric pedestrian ship" speed="13.89" length="2.30" width="3.50" shape="400.52,359.15 401.25,356.71"/>
        <lane id=":16.16.01_0_3" index="3" disallow="tram rail_urban rail rail_electric pedestrian ship" speed="13.89" length="2.30" width="3.50" shape="399.95,362.60 400.67,360.16"/>
        <lane id=":16.16.01_0_4" index="4" disallow="tram rail_urban rail rail_electric pedestrian ship" speed="13.89" length="2.30" width="4.18" shape="399.54,365.15 400.04,363.95"/>
    </edge>
    <edge id=":168_0" function="internal">
        <lane id=":168_0_0" index="0" disallow="tram rail_urban rail rail_electric pedestrian ship" speed="13.89" length="25.51" width="3.50" shape="811.92,252.66 837.43,252.55"/>
        <lane id=":168_0_1" index="1" disallow="tram rail_urban rail rail_electric pedestrian ship" speed="13.89" length="25.51" width="3.50" shape="811.93,256.16 837.44,256.05"/>
        <lane id=":168_0_2" index="2" disallow="tram rail_urban rail rail_electric pedestrian ship" speed="13.89" length="25.51" width="3.50" shape="811.95,259.66 837.46,259.55"/>
        <lane id=":168_0_3" index="3" disallow="tram rail_urban rail rail_electric pedestrian ship" speed="13.89" length="25.51" width="3.50" shape="811.96,263.16 837.47,263.05"/>
        <lane id=":168_0_4" index="4" disallow="tram rail_urban rail rail_electric pedestrian ship" speed="13.89" length="25.51" width="3.50" shape="811.98,266.66 837.49,266.55"/>
    </edge>
    <edge id=":168_5" function="internal">
        <lane id=":168_5_0" index="0" disallow="tram rail_urban rail rail_electric pedestrian ship" speed="13.89" length="25.18" width="3.50" shape="811.98,266.66 820.44,267.09 827.22,268.26 832.49,269.88 836.43,271.63"/>
    </edge>
    <edge id=":171_0" function="internal">
        <lane id=":171_0_0" index="0" disallow="tram rail_urban rail rail_electric pedestrian ship" speed="13.89" length="21.53" width="3.50" shape="839.70,352.21 861.24,352.22"/>
    </edge>
    <edge id=":171_1" function="internal">