<?xml version="1.0" encoding="UTF-8"?>

<!-- generated on Fri Aug 30 10:28:28 2019 by Eclipse SUMO netconvert Version 1.2.0
<configuration xmlns:xsi="http://www.w3.org/2001/XMLSchema-instance" xsi:noNamespaceSchemaLocation="http://sumo.dlr.de/xsd/netconvertConfiguration.xsd">

    <input>
        <opendrive-files value="simulations/Town05/Town05.xodr"/>
    </input>

    <output>
        <output-file value="simulations/Town05/Town05.net.xml"/>
    </output>

    <tls_building>
        <tls.left-green.time value="0"/>
    </tls_building>

    <junctions>
        <rectangular-lane-cut value="true"/>
    </junctions>

</configuration>
-->

<net version="1.1" junctionCornerDetail="5" rectangularLaneCut="true" limitTurnSpeed="5.50" xmlns:xsi="http://www.w3.org/2001/XMLSchema-instance" xsi:noNamespaceSchemaLocation="http://sumo.dlr.de/xsd/net_file.xsd">

    <location netOffset="270.79,200.31" convBoundary="0.00,0.00,473.11,399.44" origBoundary="-270.79,-200.31,202.31,199.12" projParameter="!"/>

    <type id="bidirectional" priority="1" speed="1.39" disallow="tram rail_urban rail rail_electric pedestrian ship" width="3.65"/>
    <type id="border" priority="0" speed="1.39" disallow="all" discard="1" width="0.10"/>
    <type id="driving" priority="1" speed="13.89" disallow="tram rail_urban rail rail_electric pedestrian ship" width="3.65"/>
    <type id="entry" priority="1" speed="22.22" disallow="tram rail_urban rail rail_electric pedestrian ship" width="3.65"/>
    <type id="exit" priority="1" speed="22.22" disallow="tram rail_urban rail rail_electric pedestrian ship" width="3.65"/>
    <type id="median" priority="0" speed="1.39" disallow="all" discard="1" width="0.10"/>
    <type id="mwyEntry" priority="1" speed="22.22" allow="private emergency authority army vip passenger hov taxi bus coach delivery truck trailer motorcycle evehicle custom1 custom2" width="3.65"/>
    <type id="mwyExit" priority="1" speed="22.22" allow="private emergency authority army vip passenger hov taxi bus coach delivery truck trailer motorcycle evehicle custom1 custom2" width="3.65"/>
    <type id="none" priority="0" speed="1.39" disallow="all" discard="1" width="1.00"/>
    <type id="offRamp" priority="1" speed="22.22" allow="private emergency authority army vip passenger hov taxi bus coach delivery truck trailer motorcycle evehicle custom1 custom2" width="3.65"/>
    <type id="onRamp" priority="1" speed="22.22" allow="private emergency authority army vip passenger hov taxi bus coach delivery truck trailer motorcycle evehicle custom1 custom2" width="3.65"/>
    <type id="parking" priority="1" speed="1.39" disallow="tram rail_urban rail rail_electric pedestrian ship" width="2.50"/>
    <type id="rail" priority="3" speed="33.33" allow="rail_urban rail rail_electric" width="3.65"/>
    <type id="restricted" priority="0" speed="13.89" disallow="all" width="3.65"/>
    <type id="roadWorks" priority="0" speed="1.39" allow="authority" width="3.65"/>
    <type id="shoulder" priority="0" speed="1.39" disallow="all" discard="1" width="1.00"/>
    <type id="special1" priority="1" speed="22.22" allow="custom1" discard="1" width="3.65"/>
    <type id="special2" priority="1" speed="22.22" allow="custom2" discard="1" width="3.65"/>
    <type id="special3" priority="1" speed="22.22" allow="custom1 custom2" discard="1" width="3.65"/>
    <type id="stop" priority="1" speed="13.89" disallow="tram rail_urban rail rail_electric pedestrian ship" width="3.65"/>
    <type id="tram" priority="2" speed="13.89" allow="tram" width="3.65"/>

    <edge id=":112_0" function="internal">
        <lane id=":112_0_0" index="0" disallow="tram rail_urban rail rail_electric pedestrian ship" speed="7.35" length="11.70" width="3.50" shape="75.72,211.90,0.03 75.29,208.57,0.03 74.00,206.19,0.03 71.85,204.76,0.03 68.85,204.27,0.03"/>
    </edge>
    <edge id=":112_1" function="internal">
        <lane id=":112_1_0" index="0" disallow="tram rail_urban rail rail_electric pedestrian ship" speed="13.89" length="25.94" width="3.50" shape="75.72,211.90,0.03 75.73,185.96,0.03"/>
        <lane id=":112_1_1" index="1" disallow="tram rail_urban rail rail_electric pedestrian ship" speed="13.89" length="25.94" width="3.50" shape="79.22,211.90,0.03 79.23,185.96,0.03"/>
    </edge>
    <edge id=":112_3" function="internal">
        <lane id=":112_3_0" index="0" disallow="tram rail_urban rail rail_electric pedestrian ship" speed="10.08" length="23.07" width="3.50" shape="79.22,211.90,0.03 80.10,205.52,0.03 82.73,200.96,0.03 87.11,198.23,0.03 93.25,197.33,0.03"/>
    </edge>
    <edge id=":112_4" function="internal">
        <lane id=":112_4_0" index="0" disallow="tram rail_urban rail rail_electric pedestrian ship" speed="7.36" length="11.77" width="3.50" shape="93.23,204.33,0.03 90.16,204.80,0.03 87.97,206.22,0.03 86.66,208.59,0.03 86.22,211.91,0.03"/>
    </edge>
    <edge id=":112_5" function="internal">
        <lane id=":112_5_0" index="0" disallow="tram rail_urban rail rail_electric pedestrian ship" speed="13.89" length="24.38" width="3.50" shape="93.23,204.33,0.03 68.85,204.27,0.03"/>
        <lane id=":112_5_1" index="1" disallow="tram rail_urban rail rail_electric pedestrian ship" speed="13.89" length="24.38" width="3.50" shape="93.24,200.83,0.03 68.85,200.77,0.03"/>
    </edge>
    <edge id=":112_7" function="internal">
        <lane id=":112_7_0" index="0" disallow="tram rail_urban rail rail_electric pedestrian ship" speed="10.14" length="7.74" width="3.50" shape="93.24,200.83,0.03 87.11,199.89,0.03 85.81,199.07,0.03"/>
    </edge>
    <edge id=":112_15" function="internal">
        <lane id=":112_15_0" index="0" disallow="tram rail_urban rail rail_electric pedestrian ship" speed="10.14" length="15.54" width="3.50" shape="85.81,199.07,0.03 82.73,197.10,0.03 80.10,192.46,0.03 79.23,185.96,0.03"/>
    </edge>
    <edge id=":112_8" function="internal">
        <lane id=":112_8_0" index="0" disallow="tram rail_urban rail rail_electric pedestrian ship" speed="13.89" length="25.94" width="3.50" shape="86.23,185.97,0.03 86.22,211.91,0.03"/>
        <lane id=":112_8_1" index="1" disallow="tram rail_urban rail rail_electric pedestrian ship" speed="13.89" length="25.94" width="3.50" shape="82.73,185.96,0.03 82.72,211.91,0.03"/>
    </edge>
    <edge id=":112_10" function="internal">
        <lane id=":112_10_0" index="0" disallow="tram rail_urban rail rail_electric pedestrian ship" speed="10.09" length="23.14" width="3.50" shape="82.73,185.96,0.03 81.86,192.46,0.03 79.26,197.09,0.03 74.92,199.86,0.03 68.85,200.77,0.03"/>
    </edge>
    <edge id=":112_11" function="internal">
        <lane id=":112_11_0" index="0" disallow="tram rail_urban rail rail_electric pedestrian ship" speed="7.38" length="11.84" width="3.50" shape="68.87,193.77,0.03 71.87,193.29,0.03 74.01,191.83,0.03 75.30,189.39,0.03 75.73,185.96,0.03"/>
    </edge>
    <edge id=":112_12" function="internal">
        <lane id=":112_12_0" index="0" disallow="tram rail_urban rail rail_electric pedestrian ship" speed="13.89" length="24.38" width="3.50" shape="68.87,193.77,0.03 93.25,193.83,0.03"/>
        <lane id=":112_12_1" index="1" disallow="tram rail_urban rail rail_electric pedestrian ship" speed="13.89" length="24.38" width="3.50" shape="68.86,197.27,0.03 93.25,197.33,0.03"/>
    </edge>
    <edge id=":112_14" function="internal">
        <lane id=":112_14_0" index="0" disallow="tram rail_urban rail rail_electric pedestrian ship" speed="10.07" length="7.70" width="3.50" shape="68.86,197.27,0.03 74.93,198.20,0.03 76.25,199.04,0.03"/>
    </edge>
    <edge id=":112_16" function="internal">
        <lane id=":112_16_0" index="0" disallow="tram rail_urban rail rail_electric pedestrian ship" speed="10.07" length="15.26" width="3.50" shape="76.25,199.04,0.03 79.26,200.95,0.03 81.86,205.52,0.03 82.72,211.91,0.03"/>
    </edge>
    <edge id=":125_0" function="internal">
        <lane id=":125_0_0" index="0" disallow="tram rail_urban rail rail_electric pedestrian ship" speed="13.89" length="28.47" width="3.50" shape="158.48,204.49,-0.00 130.01,204.42,-0.00"/>
        <lane id=":125_0_1" index="1" disallow="tram rail_urban rail rail_electric pedestrian ship" speed="13.89" length="28.47" width="3.50" shape="158.48,200.99,-0.00 130.02,200.92,-0.00"/>
    </edge>
    <edge id=":125_2" function="internal">
        <lane id=":125_2_0" index="0" disallow="tram rail_urban rail rail_electric pedestrian ship" speed="10.33" length="24.46" width="3.50" shape="158.48,200.99,-0.00 151.51,200.07,-0.00 146.55,197.36,-0.00 143.61,192.84,-0.00 142.69,186.53,-0.00"/>
    </edge>
    <edge id=":125_3" function="internal">
        <lane id=":125_3_0" index="0" disallow="tram rail_urban rail rail_electric pedestrian ship" speed="7.71" length="13.10" width="3.50" shape="149.69,186.62,-0.00 150.20,189.84,-0.00 151.84,192.14,-0.00 154.61,193.52,-0.00 158.50,193.99,-0.00"/>
    </edge>
    <edge id=":125_4" function="internal">
        <lane id=":125_4_0" index="0" disallow="tram rail_urban rail rail_electric pedestrian ship" speed="10.43" length="7.80" width="3.50" shape="146.19,186.57,-0.00 145.11,192.87,-0.00 144.31,194.04,-0.00"/>
    </edge>
    <edge id=":125_12" function="internal">
        <lane id=":125_12_0" index="0" disallow="tram rail_urban rail rail_electric pedestrian ship" speed="10.43" length="16.77" width="3.50" shape="144.31,194.04,-0.00 142.05,197.36,-0.00 137.02,200.04,-0.00 130.02,200.92,-0.00"/>
    </edge>
    <edge id=":125_5" function="internal">
        <lane id=":125_5_0" index="0" disallow="tram rail_urban rail rail_electric pedestrian ship" speed="7.84" length="13.38" width="3.50" shape="130.03,193.92,-0.00 134.00,193.47,-0.00 136.85,192.08,-0.00 138.58,189.75,-0.00 139.19,186.49,-0.00"/>
    </edge>
    <edge id=":125_6" function="internal">
        <lane id=":125_6_0" index="0" disallow="tram rail_urban rail rail_electric pedestrian ship" speed="13.89" length="28.47" width="3.50" shape="130.03,193.92,-0.00 158.50,193.99,-0.00"/>
        <lane id=":125_6_1" index="1" disallow="tram rail_urban rail rail_electric pedestrian ship" speed="13.89" length="28.47" width="3.50" shape="130.03,197.42,-0.00 158.49,197.49,-0.00"/>
    </edge>
    <edge id=":125_8" function="internal">
        <lane id=":125_8_0" index="0" disallow="tram rail_urban rail rail_electric pedestrian ship" speed="8.04" length="14.23" width="3.50" shape="138.73,213.35,-0.00 138.20,209.45,-0.00 136.57,206.66,-0.00 133.84,204.99,-0.00 130.01,204.42,-0.00"/>
    </edge>
    <edge id=":125_9" function="internal">
        <lane id=":125_9_0" index="0" disallow="tram rail_urban rail rail_electric pedestrian ship" speed="13.89" length="26.85" width="3.50" shape="138.73,213.35,-0.00 139.19,186.49,-0.00"/>
        <lane id=":125_9_1" index="1" disallow="tram rail_urban rail rail_electric pedestrian ship" speed="13.89" length="26.85" width="3.50" shape="142.23,213.36,-0.00 142.69,186.53,-0.00"/>
    </edge>
    <edge id=":125_11" function="internal">
        <lane id=":125_11_0" index="0" disallow="tram rail_urban rail rail_electric pedestrian ship" speed="10.66" length="25.90" width="3.50" shape="142.23,213.36,-0.00 143.27,206.40,-0.00 146.32,201.44,-0.00 151.40,198.47,-0.00 158.49,197.49,-0.00"/>
    </edge>
    <edge id=":138_0" function="internal">
        <lane id=":138_0_0" index="0" disallow="tram rail_urban rail rail_electric pedestrian ship" speed="13.89" length="25.19" width="3.50" shape="233.11,295.27,0.03 207.92,295.30,0.03"/>
        <lane id=":138_0_1" index="1" disallow="tram rail_urban rail rail_electric pedestrian ship" speed="13.89" length="25.19" width="3.50" shape="233.10,291.77,0.03 207.91,291.80,0.03"/>
    </edge>
    <edge id=":138_2" function="internal">
        <lane id=":138_2_0" index="0" disallow="tram rail_urban rail rail_electric pedestrian ship" speed="9.95" length="22.56" width="3.50" shape="233.10,291.77,0.03 227.06,290.89,0.03 222.76,288.22,0.03 220.20,283.78,0.03 219.37,277.56,0.03"/>
    </edge>
    <edge id=":138_3" function="internal">
        <lane id=":138_3_0" index="0" disallow="tram rail_urban rail rail_electric pedestrian ship" speed="7.19" length="11.22" width="3.50" shape="226.37,277.60,0.03 226.78,280.74,0.03 228.03,282.98,0.03 230.14,284.32,0.03 233.09,284.77,0.03"/>
    </edge>
    <edge id=":138_4" function="internal">
        <lane id=":138_4_0" index="0" disallow="tram rail_urban rail rail_electric pedestrian ship" speed="13.89" length="26.23" width="3.50" shape="226.37,277.60,0.03 226.45,284.54,0.03 226.61,290.82,0.03 226.57,297.08,0.03 226.07,303.99,0.03"/>
        <lane id=":138_4_1" index="1" disallow="tram rail_urban rail rail_electric pedestrian ship" speed="13.89" length="26.23" width="3.50" shape="222.87,277.58,0.03 222.96,284.47,0.03 223.12,290.62,0.03 223.08,296.76,0.03 222.59,303.61,0.03"/>
    </edge>
    <edge id=":138_6" function="internal">
        <lane id=":138_6_0" index="0" disallow="tram rail_urban rail rail_electric pedestrian ship" speed="10.20" length="23.50" width="3.50" shape="222.87,277.58,0.03 221.91,283.79,0.03 219.09,288.24,0.03 214.43,290.91,0.03 207.91,291.80,0.03"/>
    </edge>
    <edge id=":138_7" function="internal">
        <lane id=":138_7_0" index="0" disallow="tram rail_urban rail rail_electric pedestrian ship" speed="7.53" length="12.27" width="3.50" shape="207.90,284.80,0.03 211.37,284.34,0.03 213.86,282.98,0.03 215.36,280.71,0.03 215.87,277.54,0.03"/>
    </edge>
    <edge id=":138_8" function="internal">
        <lane id=":138_8_0" index="0" disallow="tram rail_urban rail rail_electric pedestrian ship" speed="10.05" length="8.65" width="3.50" shape="207.91,288.30,0.03 214.96,289.25,0.03 216.28,290.04,0.03"/>
    </edge>
    <edge id=":138_12" function="internal">
        <lane id=":138_12_0" index="0" disallow="tram rail_urban rail rail_electric pedestrian ship" speed="10.05" length="16.19" width="3.50" shape="216.28,290.04,0.03 219.75,292.12,0.03 222.30,296.91,0.03 222.59,303.61,0.03"/>
    </edge>
    <edge id=":138_9" function="internal">
        <lane id=":138_9_0" index="0" disallow="tram rail_urban rail rail_electric pedestrian ship" speed="7.33" length="12.63" width="3.50" shape="215.63,302.86,0.03 215.46,299.55,0.03 214.11,297.19,0.03 211.60,295.77,0.03 207.92,295.30,0.03"/>
    </edge>
    <edge id=":138_10" function="internal">
        <lane id=":138_10_0" index="0" disallow="tram rail_urban rail rail_electric pedestrian ship" speed="13.89" length="25.52" width="3.50" shape="215.63,302.86,0.03 216.11,296.11,0.03 216.13,290.22,0.03 215.96,284.32,0.03 215.87,277.54,0.03"/>
        <lane id=":138_10_1" index="1" disallow="tram rail_urban rail rail_electric pedestrian ship" speed="13.89" length="25.52" width="3.50" shape="219.11,303.24,0.03 219.60,296.44,0.03 219.62,290.42,0.03 219.46,284.39,0.03 219.37,277.56,0.03"/>
    </edge>
    <edge id=":15.14_0" function="internal">
        <lane id=":15.14_0_0" index="0" disallow="tram rail_urban rail rail_electric pedestrian ship" speed="13.89" length="0.10" width="3.50" shape="297.52,304.90,0.00 297.52,304.90,0.00"/>
        <lane id=":15.14_0_1" index="1" disallow="tram rail_urban rail rail_electric pedestrian ship" speed="13.89" length="0.10" width="3.50" shape="301.02,304.81,0.00 301.02,304.81,0.00"/>
    </edge>
    <edge id=":15.14_2" function="internal">
        <lane id=":15.14_2_0" index="0" disallow="tram rail_urban rail rail_electric pedestrian ship" speed="13.89" length="0.10" width="3.50" shape="308.02,304.62,0.00 308.02,304.62,0.00"/>
        <lane id=":15.14_2_1" index="1" disallow="tram rail_urban rail rail_electric pedestrian ship" speed="13.89" length="0.10" width="3.50" shape="304.52,304.71,0.00 304.52,304.71,0.00"/>
    </edge>
    <edge id=":151_0" function="internal">
        <lane id=":151_0_0" index="0" disallow="tram rail_urban rail rail_electric pedestrian ship" speed="7.03" length="10.61" width="3.50" shape="367.22,212.27,0.01 366.82,209.23,0.01 365.65,207.07,0.01 363.70,205.78,0.01 360.98,205.36,0.01"/>
    </edge>
    <edge id=":151_1" function="internal">
        <lane id=":151_1_0" index="0" disallow="tram rail_urban rail rail_electric pedestrian ship" speed="9.68" length="21.15" width="3.50" shape="370.72,212.26,0.01 371.51,206.44,0.01 373.92,202.28,0.01 377.96,199.77,0.01 383.61,198.92,0.01"/>
    </edge>
    <edge id=":151_2" function="internal">
        <lane id=":151_2_0" index="0" disallow="tram rail_urban rail rail_electric pedestrian ship" speed="6.85" length="10.49" width="3.50" shape="383.64,205.17,0.01 381.04,205.62,0.01 379.19,206.95,0.01 378.08,209.15,0.01 377.72,212.23,0.01"/>
    </edge>
    <edge id=":151_3" function="internal">
        <lane id=":151_3_0" index="0" disallow="tram rail_urban rail rail_electric pedestrian ship" speed="13.89" length="22.67" width="3.50" shape="383.63,202.42,0.01 360.96,201.86,0.01"/>
    </edge>
    <edge id=":151_4" function="internal">
        <lane id=":151_4_0" index="0" disallow="tram rail_urban rail rail_electric pedestrian ship" speed="9.85" length="7.71" width="3.50" shape="383.63,202.42,0.01 377.97,201.56,0.01 376.30,200.49,0.01"/>
    </edge>
    <edge id=":151_10" function="internal">
        <lane id=":151_10_0" index="0" disallow="tram rail_urban rail rail_electric pedestrian ship" speed="9.85" length="14.10" width="3.50" shape="376.30,200.49,0.01 373.90,198.94,0.01 371.43,194.56,0.01 370.55,188.41,0.01"/>
    </edge>
    <edge id=":151_5" function="internal">
        <lane id=":151_5_0" index="0" disallow="tram rail_urban rail rail_electric pedestrian ship" speed="13.89" length="23.90" width="3.50" shape="377.55,188.32,0.01 377.72,212.23,0.01"/>
        <lane id=":151_5_1" index="1" disallow="tram rail_urban rail rail_electric pedestrian ship" speed="13.89" length="23.90" width="3.50" shape="374.05,188.37,0.01 374.22,212.24,0.01"/>
    </edge>
    <edge id=":151_7" function="internal">
        <lane id=":151_7_0" index="0" disallow="tram rail_urban rail rail_electric pedestrian ship" speed="9.72" length="21.47" width="3.50" shape="374.05,188.37,0.01 373.29,194.25,0.01 370.86,198.46,0.01 366.75,200.99,0.01 360.96,201.86,0.01"/>
    </edge>
    <edge id=":151_8" function="internal">
        <lane id=":151_8_0" index="0" disallow="tram rail_urban rail rail_electric pedestrian ship" speed="13.89" length="22.67" width="3.50" shape="360.95,198.36,0.01 383.61,198.92,0.01"/>
    </edge>
    <edge id=":151_9" function="internal">
        <lane id=":151_9_0" index="0" disallow="tram rail_urban rail rail_electric pedestrian ship" speed="9.84" length="7.90" width="3.50" shape="360.95,198.36,0.01 366.74,199.20,0.01 368.48,200.29,0.01"/>
    </edge>
    <edge id=":151_11" function="internal">
        <lane id=":151_11_0" index="0" disallow="tram rail_urban rail rail_electric pedestrian ship" speed="9.84" length="14.01" width="3.50" shape="368.48,200.29,0.01 370.88,201.80,0.01 373.38,206.15,0.01 374.22,212.24,0.01"/>
    </edge>
    <edge id=":164_0" function="internal">
        <lane id=":164_0_0" index="0" disallow="tram rail_urban rail rail_electric pedestrian ship" speed="7.48" length="11.93" width="3.50" shape="297.46,302.60,0.00 296.92,299.35,0.00 295.50,297.03,0.00 293.19,295.64,0.00 290.01,295.18,0.00"/>
    </edge>
    <edge id=":164_1" function="internal">
        <lane id=":164_1_0" index="0" disallow="tram rail_urban rail rail_electric pedestrian ship" speed="13.89" length="25.43" width="3.50" shape="297.46,302.60,0.00 296.78,277.18,0.00"/>
        <lane id=":164_1_1" index="1" disallow="tram rail_urban rail rail_electric pedestrian ship" speed="13.89" length="25.43" width="3.50" shape="300.96,302.51,0.00 300.28,277.09,0.00"/>
    </edge>
    <edge id=":164_3" function="internal">
        <lane id=":164_3_0" index="0" disallow="tram rail_urban rail rail_electric pedestrian ship" speed="9.83" length="22.72" width="3.50" shape="300.96,302.51,0.00 301.64,295.99,0.00 304.07,291.39,0.00 308.25,288.69,0.00 314.18,287.91,0.00"/>
    </edge>
    <edge id=":164_4" function="internal">
        <lane id=":164_4_0" index="0" disallow="tram rail_urban rail rail_electric pedestrian ship" speed="7.02" length="11.01" width="3.50" shape="314.01,294.91,0.00 311.28,295.31,0.00 309.37,296.68,0.00 308.26,299.02,0.00 307.96,302.32,0.00"/>
    </edge>
    <edge id=":164_5" function="internal">
        <lane id=":164_5_0" index="0" disallow="tram rail_urban rail rail_electric pedestrian ship" speed="13.89" length="24.09" width="3.50" shape="314.09,291.41,0.00 290.00,291.68,0.00"/>
    </edge>
    <edge id=":164_6" function="internal">
        <lane id=":164_6_0" index="0" disallow="tram rail_urban rail rail_electric pedestrian ship" speed="10.15" length="22.43" width="3.50" shape="314.09,291.41,0.00 308.19,290.39,0.00 303.92,287.66,0.00 301.29,283.23,0.00 300.28,277.09,0.00"/>
    </edge>
    <edge id=":164_7" function="internal">
        <lane id=":164_7_0" index="0" disallow="tram rail_urban rail rail_electric pedestrian ship" speed="7.44" length="11.56" width="3.50" shape="307.28,276.90,0.00 307.79,280.12,0.00 309.13,282.45,0.00 311.29,283.88,0.00 314.27,284.41,0.00"/>
    </edge>
    <edge id=":164_8" function="internal">
        <lane id=":164_8_0" index="0" disallow="tram rail_urban rail rail_electric pedestrian ship" speed="10.00" length="8.16" width="3.50" shape="303.78,277.00,0.00 303.07,283.41,0.00 302.24,284.90,0.00"/>
    </edge>
    <edge id=":164_13" function="internal">
        <lane id=":164_13_0" index="0" disallow="tram rail_urban rail rail_electric pedestrian ship" speed="10.00" length="14.93" width="3.50" shape="302.24,284.90,0.00 300.53,288.00,0.00 296.18,290.75,0.00 290.00,291.68,0.00"/>
    </edge>
    <edge id=":164_9" function="internal">
        <lane id=":164_9_0" index="0" disallow="tram rail_urban rail rail_electric pedestrian ship" speed="7.25" length="11.60" width="3.50" shape="289.99,284.68,0.00 293.04,284.21,0.00 295.18,282.80,0.00 296.43,280.46,0.00 296.78,277.18,0.00"/>
    </edge>
    <edge id=":164_10" function="internal">
        <lane id=":164_10_0" index="0" disallow="tram rail_urban rail rail_electric pedestrian ship" speed="13.89" length="24.23" width="3.50" shape="289.99,284.68,0.00 314.27,284.41,0.00"/>
        <lane id=":164_10_1" index="1" disallow="tram rail_urban rail rail_electric pedestrian ship" speed="13.89" length="24.23" width="3.50" shape="290.00,288.18,0.00 314.18,287.91,0.00"/>
    </edge>
    <edge id=":164_12" function="internal">
        <lane id=":164_12_0" index="0" disallow="tram rail_urban rail rail_electric pedestrian ship" speed="10.17" length="23.02" width="3.50" shape="290.00,288.18,0.00 296.18,289.06,0.00 300.65,291.73,0.00 303.41,296.18,0.00 304.46,302.42,0.00"/>
    </edge>
    <edge id=":179_0" function="internal">
        <lane id=":179_0_0" index="0" disallow="tram rail_urban rail rail_electric pedestrian ship" speed="7.75" length="13.03" width="3.50" shape="295.20,214.34,0.00 294.76,210.18,0.00 293.52,207.20,0.00 291.48,205.41,0.00 288.64,204.81,0.00"/>
    </edge>
    <edge id=":179_1" function="internal">
        <lane id=":179_1_0" index="0" disallow="tram rail_urban rail rail_electric pedestrian ship" speed="13.89" length="26.44" width="3.50" shape="295.20,214.34,0.00 295.38,187.87,0.00"/>
        <lane id=":179_1_1" index="1" disallow="tram rail_urban rail rail_electric pedestrian ship" speed="13.89" length="26.44" width="3.50" shape="298.70,214.31,0.00 298.88,187.90,0.00"/>
    </edge>
    <edge id=":179_3" function="internal">
        <lane id=":179_3_0" index="0" disallow="tram rail_urban rail rail_electric pedestrian ship" speed="7.44" length="12.06" width="3.50" shape="311.88,205.57,0.00 309.15,206.12,0.00 307.21,207.75,0.00 306.06,210.46,0.00 305.70,214.25,0.00"/>
    </edge>
    <edge id=":179_4" function="internal">
        <lane id=":179_4_0" index="0" disallow="tram rail_urban rail rail_electric pedestrian ship" speed="13.89" length="23.23" width="3.50" shape="311.87,202.07,0.00 288.65,201.31,0.00"/>
    </edge>
    <edge id=":179_5" function="internal">
        <lane id=":179_5_0" index="0" disallow="tram rail_urban rail rail_electric pedestrian ship" speed="9.81" length="21.98" width="3.50" shape="311.87,202.07,0.00 306.14,201.21,0.00 302.06,198.56,0.00 299.64,194.12,0.00 298.88,187.90,0.00"/>
    </edge>
    <edge id=":179_6" function="internal">
        <lane id=":179_6_0" index="0" disallow="tram rail_urban rail rail_electric pedestrian ship" speed="9.85" length="21.83" width="3.50" shape="302.38,187.93,0.00 301.47,193.80,0.00 298.89,197.98,0.00 294.61,200.49,0.00 288.65,201.31,0.00"/>
    </edge>
    <edge id=":179_7" function="internal">
        <lane id=":179_7_0" index="0" disallow="tram rail_urban rail rail_electric pedestrian ship" speed="7.04" length="10.59" width="3.50" shape="288.67,194.31,0.00 291.58,193.91,0.00 293.67,192.71,0.00 294.94,190.69,0.00 295.38,187.87,0.00"/>
    </edge>
    <edge id=":179_8" function="internal">
        <lane id=":179_8_0" index="0" disallow="tram rail_urban rail rail_electric pedestrian ship" speed="10.36" length="7.56" width="3.50" shape="288.66,197.81,0.00 294.53,198.85,0.00 295.82,199.79,0.00"/>
    </edge>
    <edge id=":179_9" function="internal">
        <lane id=":179_9_0" index="0" disallow="tram rail_urban rail rail_electric pedestrian ship" speed="10.36" length="16.62" width="3.50" shape="295.82,199.79,0.00 298.74,201.94,0.00 301.30,207.08,0.00 302.20,214.28,0.00"/>
    </edge>
    <edge id=":194_0" function="internal">
        <lane id=":194_0_0" index="0" disallow="tram rail_urban rail rail_electric pedestrian ship" speed="13.89" length="28.00" width="3.50" shape="158.87,346.02,0.03 130.87,346.24,0.03"/>
        <lane id=":194_0_1" index="1" disallow="tram rail_urban rail rail_electric pedestrian ship" speed="13.89" length="28.00" width="3.50" shape="158.84,342.52,0.03 130.84,342.74,0.03"/>
    </edge>
    <edge id=":194_2" function="internal">
        <lane id=":194_2_0" index="0" disallow="tram rail_urban rail rail_electric pedestrian ship" speed="10.42" length="24.72" width="3.50" shape="158.84,342.52,0.03 151.94,341.65,0.03 147.00,338.89,0.03 144.01,334.25,0.03 142.98,327.74,0.03"/>
    </edge>
    <edge id=":194_3" function="internal">
        <lane id=":194_3_0" index="0" disallow="tram rail_urban rail rail_electric pedestrian ship" speed="7.82" length="13.43" width="3.50" shape="149.98,327.69,0.03 150.55,331.14,0.03 152.21,333.60,0.03 154.96,335.06,0.03 158.79,335.52,0.03"/>
    </edge>
    <edge id=":194_4" function="internal">
        <lane id=":194_4_0" index="0" disallow="tram rail_urban rail rail_electric pedestrian ship" speed="10.43" length="24.72" width="3.50" shape="146.48,327.72,0.03 145.54,334.24,0.03 142.62,338.92,0.03 137.72,341.76,0.03 130.84,342.74,0.03"/>
    </edge>
    <edge id=":194_5" function="internal">
        <lane id=":194_5_0" index="0" disallow="tram rail_urban rail rail_electric pedestrian ship" speed="7.83" length="13.44" width="3.50" shape="130.79,335.74,0.03 134.61,335.22,0.03 137.34,333.71,0.03 138.96,331.23,0.03 139.48,327.76,0.03"/>
    </edge>
    <edge id=":194_6" function="internal">
        <lane id=":194_6_0" index="0" disallow="tram rail_urban rail rail_electric pedestrian ship" speed="13.89" length="28.00" width="3.50" shape="130.79,335.74,0.03 158.79,335.52,0.03"/>
        <lane id=":194_6_1" index="1" disallow="tram rail_urban rail rail_electric pedestrian ship" speed="13.89" length="28.00" width="3.50" shape="130.82,339.24,0.03 158.81,339.02,0.03"/>
    </edge>
    <edge id=":201_0" function="internal">
        <lane id=":201_0_0" index="0" disallow="tram rail_urban rail rail_electric pedestrian ship" speed="13.89" length="22.22" width="3.50" shape="-4.94,210.11 -5.25,187.87"/>
        <lane id=":201_0_1" index="1" disallow="tram rail_urban rail rail_electric pedestrian ship" speed="13.89" length="22.22" width="3.50" shape="-1.44,210.05 -1.75,187.87"/>
    </edge>
    <edge id=":201_2" function="internal">
        <lane id=":201_2_0" index="0" disallow="tram rail_urban rail rail_electric pedestrian ship" speed="9.69" length="7.37" width="3.50" shape="-1.44,210.05 -0.67,204.39 0.21,202.98"/>
    </edge>
    <edge id=":201_7" function="internal">
        <lane id=":201_7_0" index="0" disallow="tram rail_urban rail rail_electric pedestrian ship" speed="9.69" length="14.15" width="3.50" shape="0.21,202.98 1.87,200.35 6.16,197.93 12.22,197.14"/>
    </edge>
    <edge id=":201_3" function="internal">
        <lane id=":201_3_0" index="0" disallow="tram rail_urban rail rail_electric pedestrian ship" speed="6.82" length="10.08" width="3.50" shape="12.21,204.14 9.26,204.49 7.17,205.58 5.94,207.39 5.56,209.93"/>
    </edge>
    <edge id=":201_4" function="internal">
        <lane id=":201_4_0" index="0" disallow="tram rail_urban rail rail_electric pedestrian ship" speed="9.77" length="21.56" width="3.50" shape="12.21,200.64 6.10,199.83 1.74,197.43 -0.88,193.44 -1.75,187.87"/>
    </edge>
    <edge id=":201_5" function="internal">
        <lane id=":201_5_0" index="0" disallow="tram rail_urban rail rail_electric pedestrian ship" speed="13.89" length="22.09" width="3.50" shape="5.25,187.87 5.56,209.93"/>
        <lane id=":201_5_1" index="1" disallow="tram rail_urban rail rail_electric pedestrian ship" speed="13.89" length="22.09" width="3.50" shape="1.75,187.87 2.06,209.99"/>
    </edge>
    <edge id=":208_0" function="internal">
        <lane id=":208_0_0" index="0" disallow="tram rail_urban rail rail_electric pedestrian ship" speed="13.89" length="22.01" width="3.50" shape="315.94,407.96,0.00 293.93,407.87,0.00"/>
        <lane id=":208_0_1" index="1" disallow="tram rail_urban rail rail_electric pedestrian ship" speed="13.89" length="22.01" width="3.50" shape="315.95,404.46,0.00 293.95,404.37,0.00"/>
        <lane id=":208_0_2" index="2" disallow="tram rail_urban rail rail_electric pedestrian ship" speed="13.89" length="22.01" width="3.50" shape="315.97,400.96,0.00 293.96,400.87,0.00"/>