<?xml version="1.0" encoding="UTF-8"?>

<!-- generated on 04/11/19 13:12:14 by Eclipse SUMO netconvert Version 1.1.0
<configuration xmlns:xsi="http://www.w3.org/2001/XMLSchema-instance" xsi:noNamespaceSchemaLocation="http://sumo.dlr.de/xsd/netconvertConfiguration.xsd">

    <input>
        <osm-files value="map.osm"/>
    </input>

    <output>
        <output-file value="map.net.xml"/>
    </output>

    <projection>
        <proj.utm value="true"/>
    </projection>

</configuration>
-->

<net version="1.1" junctionCornerDetail="5" limitTurnSpeed="5.50" xmlns:xsi="http://www.w3.org/2001/XMLSchema-instance" xsi:noNamespaceSchemaLocation="http://sumo.dlr.de/xsd/net_file.xsd">

    <location netOffset="-302296.16,-3461404.26" convBoundary="0.00,0.00,34562.08,10595.12" origBoundary="120.921302,31.264745,121.431866,31.365703" projParameter="+proj=utm +zone=51 +ellps=WGS84 +datum=WGS84 +units=m +no_defs"/>

    <type id="highway.bridleway" priority="1" numLanes="1" speed="2.78" allow="pedestrian" oneway="1" width="2.00"/>
    <type id="highway.bus_guideway" priority="1" numLanes="1" speed="27.78" allow="bus" oneway="1"/>
    <type id="highway.cycleway" priority="1" numLanes="1" speed="8.33" allow="bicycle" oneway="0" width="1.00"/>
    <type id="highway.footway" priority="1" numLanes="1" speed="2.78" allow="pedestrian" oneway="1" width="2.00"/>
    <type id="highway.ford" priority="1" numLanes="1" speed="2.78" allow="army" oneway="0"/>
    <type id="highway.living_street" priority="3" numLanes="1" speed="2.78" disallow="tram rail_urban rail rail_electric ship" oneway="0"/>
    <type id="highway.motorway" priority="13" numLanes="2" speed="44.44" allow="private emergency authority army vip passenger hov taxi bus coach delivery truck trailer motorcycle evehicle custom1 custom2" oneway="1"/>
    <type id="highway.motorway_link" priority="12" numLanes="1" speed="22.22" allow="private emergency authority army vip passenger hov taxi bus coach delivery truck trailer motorcycle evehicle custom1 custom2" oneway="1"/>
    <type id="highway.path" priority="1" numLanes="1" speed="2.78" allow="bicycle pedestrian" oneway="1" width="2.00"/>
    <type id="highway.pedestrian" priority="1" numLanes="1" speed="2.78" allow="pedestrian" oneway="1" width="2.00"/>
    <type id="highway.primary" priority="9" numLanes="2" speed="27.78" disallow="tram rail_urban rail rail_electric ship" oneway="0"/>
    <type id="highway.primary_link" priority="8" numLanes="1" speed="22.22" disallow="tram rail_urban rail rail_electric ship" oneway="0"/>
    <type id="highway.raceway" priority="14" numLanes="2" speed="83.33" allow="vip" oneway="0"/>
    <type id="highway.residential" priority="4" numLanes="1" speed="13.89" disallow="tram rail_urban rail rail_electric ship" oneway="0"/>
    <type id="highway.secondary" priority="7" numLanes="2" speed="27.78" disallow="tram rail_urban rail rail_electric ship" oneway="0"/>
    <type id="highway.secondary_link" priority="6" numLanes="1" speed="22.22" disallow="tram rail_urban rail rail_electric ship" oneway="0"/>
    <type id="highway.service" priority="2" numLanes="1" speed="5.56" allow="delivery bicycle pedestrian" oneway="0"/>
    <type id="highway.stairs" priority="1" numLanes="1" speed="1.39" allow="pedestrian" oneway="1" width="2.00"/>
    <type id="highway.step" priority="1" numLanes="1" speed="1.39" allow="pedestrian" oneway="1" width="2.00"/>
    <type id="highway.steps" priority="1" numLanes="1" speed="1.39" allow="pedestrian" oneway="1" width="2.00"/>
    <type id="highway.tertiary" priority="6" numLanes="1" speed="22.22" disallow="tram rail_urban rail rail_electric ship" oneway="0"/>
    <type id="highway.tertiary_link" priority="5" numLanes="1" speed="22.22" disallow="tram rail_urban rail rail_electric ship" oneway="0"/>
    <type id="highway.track" priority="1" numLanes="1" speed="5.56" disallow="tram rail_urban rail rail_electric ship" oneway="0"/>
    <type id="highway.trunk" priority="11" numLanes="2" speed="27.78" disallow="tram rail_urban rail rail_electric bicycle pedestrian ship" oneway="0"/>
    <type id="highway.trunk_link" priority="10" numLanes="1" speed="22.22" disallow="tram rail_urban rail rail_electric bicycle pedestrian ship" oneway="0"/>
    <type id="highway.unclassified" priority="5" numLanes="1" speed="13.89" disallow="tram rail_urban rail rail_electric ship" oneway="0"/>
    <type id="highway.unsurfaced" priority="1" numLanes="1" speed="8.33" disallow="tram rail_urban rail rail_electric ship" oneway="0"/>
    <type id="railway.light_rail" priority="15" numLanes="1" speed="27.78" allow="rail_urban" oneway="1"/>
    <type id="railway.preserved" priority="15" numLanes="1" speed="27.78" allow="rail" oneway="1"/>
    <type id="railway.rail" priority="15" numLanes="1" speed="83.33" allow="rail rail_electric" oneway="1"/>
    <type id="railway.subway" priority="15" numLanes="1" speed="27.78" allow="rail_urban" oneway="1"/>
    <type id="railway.tram" priority="15" numLanes="1" speed="13.89" allow="tram" oneway="1"/>

    <edge id=":1186972512_0" function="internal">
        <lane id=":1186972512_0_0" index="0" allow="bicycle pedestrian" speed="2.78" length="2.92" width="2.00" shape="26057.88,2398.35 26057.14,2397.83 26056.90,2397.33 26057.16,2396.83 26057.92,2396.35"/>
    </edge>
    <edge id=":1187044372_0" function="internal">
        <lane id=":1187044372_0_0" index="0" disallow="tram rail_urban rail rail_electric bicycle pedestrian ship" speed="6.27" length="9.04" shape="27626.74,538.06 27625.00,536.23 27623.15,535.48 27621.17,535.80 27619.08,537.20"/>
    </edge>
    <edge id=":1187044372_1" function="internal">
        <lane id=":1187044372_1_0" index="0" disallow="tram rail_urban rail rail_electric bicycle pedestrian ship" speed="7.11" length="11.95" shape="27626.74,538.06 27624.17,535.09 27621.68,533.57 27619.27,533.48 27616.93,534.82"/>
    </edge>
    <edge id=":1187044372_2" function="internal">
        <lane id=":1187044372_2_0" index="0" disallow="tram rail_urban rail rail_electric ship" speed="27.78" length="19.70" shape="27626.74,538.06 27615.32,522.01"/>
        <lane id=":1187044372_2_1" index="1" disallow="tram rail_urban rail rail_electric ship" speed="27.78" length="19.70" shape="27629.35,536.21 27617.92,520.15"/>
    </edge>
    <edge id=":1187044372_4" function="internal">
        <lane id=":1187044372_4_0" index="0" disallow="tram rail_urban rail rail_electric bicycle pedestrian ship" speed="27.78" length="13.83" shape="27628.20,526.93 27624.98,529.43 27622.55,530.85 27620.13,532.29 27616.93,534.82"/>
        <lane id=":1187044372_4_1" index="1" disallow="tram rail_urban rail rail_electric bicycle pedestrian ship" speed="27.78" length="13.83" shape="27626.09,524.53 27622.86,527.03 27620.42,528.46 27617.99,529.90 27614.79,532.44"/>
        <lane id=":1187044372_4_2" index="2" disallow="tram rail_urban rail rail_electric bicycle pedestrian ship" speed="27.78" length="13.83" shape="27623.98,522.12 27620.74,524.64 27618.30,526.07 27615.86,527.51 27612.65,530.06"/>
    </edge>
    <edge id=":1187044372_7" function="internal">
        <lane id=":1187044372_7_0" index="0" disallow="tram rail_urban rail rail_electric ship" speed="5.75" length="7.35" shape="27623.98,522.12 27622.53,522.94 27621.04,522.88 27619.50,521.95 27617.92,520.15"/>
    </edge>
    <edge id=":1187044390_0" function="internal">
        <lane id=":1187044390_0_0" index="0" disallow="tram rail_urban rail rail_electric bicycle pedestrian ship" speed="27.78" length="8.21" shape="26865.28,1182.40 26866.90,1180.61 26867.73,1179.13 26868.56,1177.65 26870.18,1175.87"/>
        <lane id=":1187044390_0_1" index="1" disallow="tram rail_urban rail rail_electric bicycle pedestrian ship" speed="27.78" length="8.21" shape="26865.28,1182.40 26867.24,1180.98 26868.80,1180.32 26870.36,1179.66 26872.31,1178.25"/>
        <lane id=":1187044390_0_2" index="2" disallow="tram rail_urban rail rail_electric bicycle pedestrian ship" speed="27.78" length="8.21" shape="26867.42,1184.78 26869.37,1183.37 26870.93,1182.71 26872.49,1182.05 26874.45,1180.63"/>
        <lane id=":1187044390_0_3" index="3" disallow="tram rail_urban rail rail_electric bicycle pedestrian ship" speed="27.78" length="8.21" shape="26869.56,1187.16 26871.51,1185.75 26873.07,1185.09 26874.63,1184.43 26876.58,1183.02"/>
    </edge>
    <edge id=":1187044733_0" function="internal">
        <lane id=":1187044733_0_0" index="0" allow="delivery bicycle pedestrian" speed="6.32" length="8.81" shape="27070.30,1030.86 27067.99,1033.20 27066.67,1035.20 27066.32,1036.85 27066.96,1038.15"/>
    </edge>
    <edge id=":1187044733_1" function="internal">
        <lane id=":1187044733_1_0" index="0" disallow="tram rail_urban rail rail_electric bicycle pedestrian ship" speed="27.78" length="10.85" shape="27070.30,1030.86 27067.76,1032.81 27065.79,1033.85 27063.81,1034.88 27061.27,1036.82"/>
        <lane id=":1187044733_1_1" index="1" disallow="tram rail_urban rail rail_electric bicycle pedestrian ship" speed="27.78" length="10.85" shape="27068.16,1028.48 27065.62,1030.43 27063.65,1031.47 27061.68,1032.50 27059.13,1034.44"/>
        <lane id=":1187044733_1_2" index="2" disallow="tram rail_urban rail rail_electric bicycle pedestrian ship" speed="27.78" length="10.85" shape="27066.02,1026.11 27063.48,1028.05 27061.51,1029.08 27059.54,1030.11 27057.00,1032.05"/>
    </edge>
    <edge id=":1187044733_4" function="internal">
        <lane id=":1187044733_4_0" index="0" disallow="tram rail_urban rail rail_electric ship" speed="5.49" length="8.05" shape="27063.88,1023.73 27061.39,1025.70 27059.47,1026.66 27058.10,1026.59 27057.29,1025.50"/>
    </edge>
    <edge id=":1187044733_5" function="internal">
        <lane id=":1187044733_5_0" index="0" allow="delivery bicycle pedestrian" speed="13.89" length="15.32" shape="27060.32,1024.49 27061.53,1028.13 27062.91,1031.77 27064.65,1035.19 27066.96,1038.15"/>
    </edge>
    <edge id=":1187044733_6" function="internal">
        <lane id=":1187044733_6_0" index="0" disallow="tram rail_urban rail rail_electric bicycle pedestrian ship" speed="8.31" length="10.60" shape="27060.32,1024.49 27061.10,1027.68 27061.17,1030.40 27060.51,1032.65 27059.13,1034.44"/>
    </edge>
    <edge id=":1187044733_7" function="internal">
        <lane id=":1187044733_7_0" index="0" disallow="tram rail_urban rail rail_electric bicycle pedestrian ship" speed="7.59" length="8.73" shape="27060.32,1024.49 27060.56,1026.29 27060.08,1028.15 27058.90,1030.07 27057.00,1032.05"/>
    </edge>
    <edge id=":1187044733_8" function="internal">
        <lane id=":1187044733_8_0" index="0" disallow="tram rail_urban rail rail_electric ship" speed="3.65" length="4.67" shape="27060.32,1024.49 27059.94,1025.88 27059.31,1026.52 27058.43,1026.39 27057.29,1025.50"/>
    </edge>
    <edge id=":1187044749_0" function="internal">
        <lane id=":1187044749_0_0" index="0" disallow="tram rail_urban rail rail_electric ship" speed="6.87" length="9.50" shape="27637.78,518.69 27636.07,520.61 27635.32,522.65 27635.54,524.82 27636.72,527.11"/>
    </edge>
    <edge id=":1187044749_1" function="internal">
        <lane id=":1187044749_1_0" index="0" disallow="tram rail_urban rail rail_electric bicycle pedestrian ship" speed="27.78" length="12.49" shape="27637.78,518.69 27628.35,526.80"/>
        <lane id=":1187044749_1_1" index="1" disallow="tram rail_urban rail rail_electric bicycle pedestrian ship" speed="27.78" length="12.49" shape="27635.71,516.25 27626.24,524.40"/>
        <lane id=":1187044749_1_2" index="2" disallow="tram rail_urban rail rail_electric bicycle pedestrian ship" speed="27.78" length="12.49" shape="27633.65,513.81 27624.13,521.99"/>
    </edge>
    <edge id=":1187044749_4" function="internal">
        <lane id=":1187044749_4_0" index="0" disallow="tram rail_urban rail rail_electric ship" speed="27.78" length="16.82" shape="27626.68,513.52 27636.72,527.11"/>
        <lane id=":1187044749_4_1" index="1" disallow="tram rail_urban rail rail_electric ship" speed="27.78" length="16.82" shape="27624.15,515.48 27634.11,528.95"/>
    </edge>
    <edge id=":1187044749_6" function="internal">
        <lane id=":1187044749_6_0" index="0" disallow="tram rail_urban rail rail_electric bicycle pedestrian ship" speed="6.96" length="9.99" shape="27624.15,515.48 27626.14,518.44 27627.15,520.91 27627.19,522.90 27626.24,524.40"/>
    </edge>
    <edge id=":1187044749_7" function="internal">
        <lane id=":1187044749_7_0" index="0" disallow="tram rail_urban rail rail_electric bicycle pedestrian ship" speed="6.05" length="7.31" shape="27624.15,515.48 27625.27,517.34 27625.64,519.04 27625.26,520.59 27624.13,521.99"/>
    </edge>
    <edge id=":1187044863_0" function="internal">
        <lane id=":1187044863_0_0" index="0" disallow="tram rail_urban rail rail_electric bicycle pedestrian ship" speed="27.78" length="0.28" shape="26884.30,1197.00 26884.04,1197.23"/>
        <lane id=":1187044863_0_1" index="1" disallow="tram rail_urban rail rail_electric bicycle pedestrian ship" speed="27.78" length="0.28" shape="26882.14,1194.64 26881.92,1194.83"/>
        <lane id=":1187044863_0_2" index="2" disallow="tram rail_urban rail rail_electric bicycle pedestrian ship" speed="27.78" length="0.28" shape="26879.98,1192.28 26879.81,1192.43"/>
    </edge>
    <edge id=":1187044978_0" function="internal">
        <lane id=":1187044978_0_0" index="0" disallow="tram rail_urban rail rail_electric bicycle pedestrian ship" speed="27.78" length="0.30" shape="26859.97,1218.50 26859.74,1218.70"/>
        <lane id=":1187044978_0_1" index="1" disallow="tram rail_urban rail rail_electric bicycle pedestrian ship" speed="27.78" length="0.30" shape="26857.85,1216.10 26857.62,1216.30"/>
        <lane id=":1187044978_0_2" index="2" disallow="tram rail_urban rail rail_electric bicycle pedestrian ship" speed="27.78" length="0.30" shape="26855.73,1213.70 26855.51,1213.90"/>
    </edge>
    <edge id=":1187044987_0" function="internal">
        <lane id=":1187044987_0_0" index="0" disallow="tram rail_urban rail rail_electric bicycle pedestrian ship" speed="6.23" length="9.05" shape="27614.35,496.49 27616.05,498.36 27617.89,499.14 27619.86,498.83 27621.96,497.42"/>
    </edge>
    <edge id=":1187044987_1" function="internal">
        <lane id=":1187044987_1_0" index="0" disallow="tram rail_urban rail rail_electric bicycle pedestrian ship" speed="7.07" length="11.99" shape="27614.35,496.49 27616.87,499.51 27619.33,501.07 27621.74,501.17 27624.10,499.80"/>
    </edge>
    <edge id=":1187044987_2" function="internal">
        <lane id=":1187044987_2_0" index="0" disallow="tram rail_urban rail rail_electric ship" speed="27.78" length="20.93" shape="27614.35,496.49 27626.56,513.36"/>
        <lane id=":1187044987_2_1" index="1" disallow="tram rail_urban rail rail_electric ship" speed="27.78" length="20.93" shape="27611.70,498.29 27624.03,515.33"/>
    </edge>
    <edge id=":1187044987_4" function="internal">
        <lane id=":1187044987_4_0" index="0" disallow="tram rail_urban rail rail_electric bicycle pedestrian ship" speed="27.78" length="13.37" shape="27612.02,506.36 27621.96,497.42"/>
        <lane id=":1187044987_4_1" index="1" disallow="tram rail_urban rail rail_electric bicycle pedestrian ship" speed="27.78" length="13.37" shape="27614.15,508.74 27624.10,499.80"/>
        <lane id=":1187044987_4_2" index="2" disallow="tram rail_urban rail rail_electric bicycle pedestrian ship" speed="27.78" length="13.37" shape="27616.29,511.12 27626.24,502.18"/>
        <lane id=":1187044987_4_3" index="3" disallow="tram rail_urban rail rail_electric bicycle pedestrian ship" speed="27.78" length="13.37" shape="27618.43,513.50 27628.38,504.56"/>
    </edge>
    <edge id=":1187044987_8" function="internal">
        <lane id=":1187044987_8_0" index="0" disallow="tram rail_urban rail rail_electric ship" speed="5.58" length="6.72" shape="27618.43,513.50 27619.71,512.78 27621.06,512.85 27622.50,513.70 27624.03,515.33"/>
    </edge>
    <edge id=":1187045165_0" function="internal">
        <lane id=":1187045165_0_0" index="0" disallow="tram rail_urban rail rail_electric bicycle pedestrian ship" speed="27.78" length="0.29" shape="26844.43,1201.12 26844.68,1200.90"/>
        <lane id=":1187045165_0_1" index="1" disallow="tram rail_urban rail rail_electric bicycle pedestrian ship" speed="27.78" length="0.29" shape="26846.60,1203.47 26846.82,1203.28"/>
        <lane id=":1187045165_0_2" index="2" disallow="tram rail_urban rail rail_electric bicycle pedestrian ship" speed="27.78" length="0.29" shape="26848.77,1205.83 26848.95,1205.66"/>
    </edge>
    <edge id=":1187045195_0" function="internal">
        <lane id=":1187045195_0_0" index="0" disallow="tram rail_urban rail rail_electric bicycle pedestrian ship" speed="27.78" length="0.36" shape="27762.15,424.59 27761.94,424.72"/>
        <lane id=":1187045195_0_1" index="1" disallow="tram rail_urban rail rail_electric bicycle pedestrian ship" speed="27.78" length="0.36" shape="27760.44,421.88 27760.14,422.07"/>
        <lane id=":1187045195_0_2" index="2" disallow="tram rail_urban rail rail_electric bicycle pedestrian ship" speed="27.78" length="0.36" shape="27758.74,419.17 27758.35,419.43"/>
    </edge>
    <edge id=":1187061183_0" function="internal">
        <lane id=":1187061183_0_0" index="0" disallow="tram rail_urban rail rail_electric bicycle pedestrian ship" speed="5.89" length="5.82" shape="26623.39,1386.53 26622.17,1385.21 26620.93,1384.42 26619.69,1384.17 26618.43,1384.44"/>
    </edge>
    <edge id=":1187061183_1" function="internal">
        <lane id=":1187061183_1_0" index="0" allow="delivery bicycle pedestrian" speed="3.65" length="4.67" shape="26623.39,1386.53 26623.29,1385.09 26623.68,1384.29 26624.56,1384.11 26625.93,1384.58"/>
    </edge>
    <edge id=":1187061183_2" function="internal">
        <lane id=":1187061183_2_0" index="0" allow="delivery bicycle pedestrian" speed="4.88" length="5.21" shape="26626.84,1380.29 26625.67,1381.16 26625.12,1382.17 26625.21,1383.30 26625.93,1384.58"/>
    </edge>
    <edge id=":1187061183_3" function="internal">
        <lane id=":1187061183_3_0" index="0" disallow="tram rail_urban rail rail_electric bicycle pedestrian ship" speed="27.78" length="9.10" shape="26626.84,1380.29 26624.39,1381.62 26622.70,1382.51 26620.98,1383.33 26618.43,1384.44"/>
        <lane id=":1187061183_3_1" index="1" disallow="tram rail_urban rail rail_electric bicycle pedestrian ship" speed="27.78" length="9.10" shape="26625.33,1377.47 26622.95,1378.76 26621.32,1379.62 26619.65,1380.42 26617.17,1381.50"/>
        <lane id=":1187061183_3_2" index="2" disallow="tram rail_urban rail rail_electric bicycle pedestrian ship" speed="27.78" length="9.10" shape="26623.81,1374.66 26621.51,1375.90 26619.93,1376.74 26618.31,1377.51 26615.92,1378.55"/>
    </edge>
    <edge id=":1187061198_0" function="internal">
        <lane id=":1187061198_0_0" index="0" disallow="tram rail_urban rail rail_electric bicycle pedestrian ship" speed="27.78" length="0.30" shape="26078.70,1468.75 26078.40,1468.73"/>
        <lane id=":1187061198_0_1" index="1" disallow="tram rail_urban rail rail_electric bicycle pedestrian ship" speed="27.78" length="0.30" shape="26078.93,1465.56 26078.63,1465.54"/>
        <lane id=":1187061198_0_2" index="2" disallow="tram rail_urban rail rail_electric bicycle pedestrian ship" speed="27.78" length="0.30" shape="26079.16,1462.37 26078.86,1462.34"/>
    </edge>
    <edge id=":1187061206_0" function="internal">
        <lane id=":1187061206_0_0" index="0" disallow="tram rail_urban rail rail_electric bicycle pedestrian ship" speed="27.78" length="8.21" shape="25808.30,1454.17 25805.89,1454.26 25804.25,1454.70 25802.61,1455.14 25800.20,1455.22"/>
        <lane id=":1187061206_0_1" index="1" disallow="tram rail_urban rail rail_electric bicycle pedestrian ship" speed="27.78" length="8.21" shape="25808.30,1454.17 25805.92,1453.76 25804.36,1453.10 25802.79,1452.44 25800.42,1452.03"/>
        <lane id=":1187061206_0_2" index="2" disallow="tram rail_urban rail rail_electric bicycle pedestrian ship" speed="27.78" length="8.21" shape="25808.51,1450.97 25806.13,1450.56 25804.57,1449.91 25803.01,1449.25 25800.64,1448.84"/>
        <lane id=":1187061206_0_3" index="3" disallow="tram rail_urban rail rail_electric bicycle pedestrian ship" speed="27.78" length="8.21" shape="25808.72,1447.78 25806.35,1447.37 25804.79,1446.72 25803.23,1446.06 25800.85,1445.65"/>
    </edge>
    <edge id=":1187061222_0" function="internal">
        <lane id=":1187061222_0_0" index="0" disallow="tram rail_urban rail rail_electric bicycle pedestrian ship" speed="25.00" length="8.17" shape="25868.64,1436.25 25871.00,1436.23 25872.60,1435.82 25874.21,1435.38 25876.58,1435.27"/>
        <lane id=":1187061222_0_1" index="1" disallow="tram rail_urban rail rail_electric bicycle pedestrian ship" speed="25.00" length="8.17" shape="25868.33,1439.44 25870.72,1439.42 25872.35,1439.01 25873.99,1438.57 25876.39,1438.47"/>
        <lane id=":1187061222_0_2" index="2" disallow="tram rail_urban rail rail_electric bicycle pedestrian ship" speed="25.00" length="8.17" shape="25868.02,1442.62 25870.45,1442.61 25872.10,1442.20 25873.76,1441.76 25876.20,1441.66"/>
    </edge>
    <edge id=":1187061229_0" function="internal">
        <lane id=":1187061229_0_0" index="0" disallow="tram rail_urban rail rail_electric bicycle pedestrian ship" speed="27.78" length="12.97" shape="25840.35,1455.83 25827.13,1455.43"/>
        <lane id=":1187061229_0_1" index="1" disallow="tram rail_urban rail rail_electric bicycle pedestrian ship" speed="27.78" length="12.97" shape="25840.31,1452.63 25827.34,1452.23"/>
        <lane id=":1187061229_0_2" index="2" disallow="tram rail_urban rail rail_electric bicycle pedestrian ship" speed="27.78" length="12.97" shape="25840.26,1449.43 25827.56,1449.04"/>
    </edge>
    <edge id=":1187061229_3" function="internal">
        <lane id=":1187061229_3_0" index="0" disallow="tram rail_urban rail rail_electric ship" speed="6.54" length="9.72" shape="25840.26,1449.43 25837.17,1449.16 25835.01,1448.22 25833.78,1446.64 25833.49,1444.40"/>
    </edge>
    <edge id=":1187061229_4" function="internal">
        <lane id=":1187061229_4_0" index="0" disallow="tram rail_urban rail rail_electric ship" speed="5.64" length="6.94" shape="25840.26,1449.43 25838.57,1449.15 25837.41,1448.26 25836.78,1446.75 25836.69,1444.63"/>
    </edge>
    <edge id=":1187061255_0" function="internal">
        <lane id=":1187061255_0_0" index="0" disallow="tram rail_urban rail rail_electric bicycle pedestrian ship" speed="27.78" length="2.13" shape="26102.92,1470.48 26102.77,1470.47"/>
        <lane id=":1187061255_0_1" index="1" disallow="tram rail_urban rail rail_electric bicycle pedestrian ship" speed="27.78" length="2.13" shape="26106.11,1467.50 26103.00,1467.28"/>
        <lane id=":1187061255_0_2" index="2" disallow="tram rail_urban rail rail_electric bicycle pedestrian ship" speed="27.78" length="2.13" shape="26106.34,1464.31 26103.23,1464.09"/>
    </edge>
    <edge id=":1246570803_0" function="internal">
        <lane id=":1246570803_0_0" index="0" disallow="tram rail_urban rail rail_electric ship" speed="27.78" length="0.24" shape="28097.46,1219.49 28097.38,1219.33"/>
        <lane id=":1246570803_0_1" index="1" disallow="tram rail_urban rail rail_electric ship" speed="27.78" length="0.24" shape="28100.40,1218.24 28100.27,1217.96"/>
    </edge>
    <edge id=":1246570826_0" function="internal">
        <lane id=":1246570826_0_0" index="0" disallow="tram rail_urban rail rail_electric ship" speed="27.78" length="0.29" shape="28101.51,1196.75 28101.65,1197.03"/>
        <lane id=":1246570826_0_1" index="1" disallow="tram rail_urban rail rail_electric ship" speed="27.78" length="0.29" shape="28098.64,1198.16 28098.76,1198.41"/>
    </edge>
    <edge id=":1246570837_0" function="internal">
        <lane id=":1246570837_0_0" index="0" disallow="tram rail_urban rail rail_electric ship" speed="27.78" length="0.30" shape="28156.29,1775.89 28156.27,1776.19"/>
        <lane id=":1246570837_0_1" index="1" disallow="tram rail_urban rail rail_electric ship" speed="27.78" length="0.30" shape="28153.10,1775.70 28153.08,1775.99"/>
    </edge>
    <edge id=":1246570865_0" function="internal">
        <lane id=":1246570865_0_0" index="0" disallow="tram rail_urban rail rail_electric ship" speed="27.78" length="0.10" shape="28143.95,1754.47 28143.95,1754.47"/>
        <lane id=":1246570865_0_1" index="1" disallow="tram rail_urban rail rail_electric ship" speed="27.78" length="0.10" shape="28147.15,1754.67 28147.15,1754.67"/>
    </edge>
    <edge id=":1246570875_0" function="internal">
        <lane id=":1246570875_0_0" index="0" disallow="tram rail_urban rail rail_electric ship" speed="27.78" length="0.25" shape="28127.58,2243.18 28127.55,2243.48"/>
        <lane id=":1246570875_0_1" index="1" disallow="tram rail_urban rail rail_electric ship" speed="27.78" length="0.25" shape="28124.38,2242.98 28124.37,2243.18"/>
    </edge>
    <edge id=":1246570891_0" function="internal">
        <lane id=":1246570891_0_0" index="0" disallow="tram rail_urban rail rail_electric ship" speed="27.78" length="0.10" shape="27692.69,606.29 27692.69,606.29"/>
        <lane id=":1246570891_0_1" index="1" disallow="tram rail_urban rail rail_electric ship" speed="27.78" length="0.10" shape="27690.08,608.13 27690.08,608.13"/>
    </edge>
    <edge id=":1246570903_0" function="internal">
        <lane id=":1246570903_0_0" index="0" disallow="tram rail_urban rail rail_electric ship" speed="27.78" length="0.10" shape="28111.57,1217.83 28111.60,1217.90"/>
        <lane id=":1246570903_0_1" index="1" disallow="tram rail_urban rail rail_electric ship" speed="27.78" length="0.10" shape="28108.68,1219.21 28108.65,1219.13"/>
    </edge>
    <edge id=":1246570915_0" function="internal">
        <lane id=":1246570915_0_0" index="0" disallow="tram rail_urban rail rail_electric ship" speed="27.78" length="0.10" shape="28157.54,1755.46 28157.54,1755.46"/>
        <lane id=":1246570915_0_1" index="1" disallow="tram rail_urban rail rail_electric ship" speed="27.78" length="0.10" shape="28154.34,1755.27 28154.34,1755.27"/>
    </edge>
    <edge id=":1246570930_0" function="internal">
        <lane id=":1246570930_0_0" index="0" disallow="tram rail_urban rail rail_electric ship" speed="27.78" length="0.23" shape="28086.98,1197.37 28086.93,1197.27"/>
        <lane id=":1246570930_0_1" index="1" disallow="tram rail_urban rail rail_electric ship" speed="27.78" length="0.23" shape="28089.88,1196.00 28089.72,1195.70"/>
    </edge>
    <edge id=":1246570947_0" function="internal">
        <lane id=":1246570947_0_0" index="0" disallow="tram rail_urban rail rail_electric ship" speed="27.78" length="0.28" shape="28114.51,2243.21 28114.53,2242.96"/>
        <lane id=":1246570947_0_1" index="1" disallow="tram rail_urban rail rail_electric ship" speed="27.78" length="0.28" shape="28117.70,2243.47 28117.72,2243.16"/>
    </edge>
    <edge id=":1246571008_0" function="internal">
        <lane id=":1246571008_0_0" index="0" disallow="tram rail_urban rail rail_electric ship" speed="27.78" length="0.30" shape="27679.67,612.80 27679.49,612.55"/>
        <lane id=":1246571008_0_1" index="1" disallow="tram rail_urban rail rail_electric ship" speed="27.78" length="0.30" shape="27682.27,610.94 27682.10,610.70"/>
    </edge>
    <edge id=":1246571049_0" function="internal">
        <lane id=":1246571049_0_0" index="0" disallow="tram rail_urban rail rail_electric ship" speed="27.78" length="0.23" shape="28125.67,2263.82 28125.66,2263.99"/>
        <lane id=":1246571049_0_1" index="1" disallow="tram rail_urban rail rail_electric ship" speed="27.78" length="0.23" shape="28122.49,2263.52 28122.46,2263.81"/>
    </edge>
    <edge id=":1246571050_0" function="internal">
        <lane id=":1246571050_0_0" index="0" disallow="tram rail_urban rail rail_electric ship" speed="27.78" length="0.30" shape="27708.65,628.85 27708.82,629.08"/>
        <lane id=":1246571050_0_1" index="1" disallow="tram rail_urban rail rail_electric ship" speed="27.78" length="0.30" shape="27706.04,630.70 27706.22,630.94"/>
    </edge>
    <edge id=":1246571058_0" function="internal">
        <lane id=":1246571058_0_0" index="0" disallow="tram rail_urban rail rail_electric ship" speed="27.78" length="0.30" shape="27696.35,636.13 27696.17,635.88"/>
        <lane id=":1246571058_0_1" index="1" disallow="tram rail_urban rail rail_electric ship" speed="27.78" length="0.30" shape="27698.95,634.27 27698.78,634.02"/>
    </edge>
    <edge id=":1455057526_0" function="internal">
        <lane id=":1455057526_0_0" index="0" disallow="tram rail_urban rail rail_electric ship" speed="3.65" length="4.67" shape="26899.81,134.05 26900.84,133.05 26901.71,132.83 26902.41,133.39 26902.94,134.73"/>
    </edge>
    <edge id=":1455057638_0" function="internal">
        <lane id=":1455057638_0_0" index="0" disallow="tram rail_urban rail rail_electric ship" speed="22.22" length="23.98" shape="27057.22,1025.31 27055.76,1020.38 27054.02,1013.77 27052.39,1007.12 27051.27,1002.09"/>
    </edge>
    <edge id=":1455057638_1" function="internal">
        <lane id=":1455057638_1_0" index="0" disallow="tram rail_urban rail rail_electric bicycle pedestrian ship" speed="10.79" length="18.26" shape="27057.22,1025.31 27057.31,1022.80 27059.01,1019.53 27062.32,1015.51 27067.23,1010.72"/>
    </edge>
    <edge id=":1455057638_2" function="internal">