<?xml version="1.0" encoding="UTF-8"?>

<!-- generated on 04/11/19 00:15:11 by Eclipse SUMO netconvert Version 1.1.0
<configuration xmlns:xsi="http://www.w3.org/2001/XMLSchema-instance" xsi:noNamespaceSchemaLocation="http://sumo.dlr.de/xsd/netconvertConfiguration.xsd">

    <input>
        <osm-files value="tongji.osm"/>
    </input>

    <output>
        <output-file value="tongji.net.xml"/>
    </output>

    <projection>
        <proj.utm value="true"/>
    </projection>

</configuration>
-->

<net version="1.1" junctionCornerDetail="5" limitTurnSpeed="5.50" xmlns:xsi="http://www.w3.org/2001/XMLSchema-instance" xsi:noNamespaceSchemaLocation="http://sumo.dlr.de/xsd/net_file.xsd">

    <location netOffset="-329178.19,-3462434.84" convBoundary="0.00,0.00,496.05,436.05" origBoundary="121.205427,31.283759,121.210650,31.287681" projParameter="+proj=utm +zone=51 +ellps=WGS84 +datum=WGS84 +units=m +no_defs"/>

    <type id="highway.bridleway" priority="1" numLanes="1" speed="2.78" allow="pedestrian" oneway="1" width="2.00"/>
    <type id="highway.bus_guideway" priority="1" numLanes="1" speed="27.78" allow="bus" oneway="1"/>
    <type id="highway.cycleway" priority="1" numLanes="1" speed="8.33" allow="bicycle" oneway="0" width="1.00"/>
    <type id="highway.footway" priority="1" numLanes="1" speed="2.78" allow="pedestrian" oneway="1" width="2.00"/>
    <type id="highway.ford" priority="1" numLanes="1" speed="2.78" allow="army" oneway="0"/>
    <type id="highway.living_street" priority="3" numLanes="1" speed="2.78" disallow="tram rail_urban rail rail_electric ship" oneway="0"/>
    <type id="highway.motorway" priority="13" numLanes="2" speed="44.44" allow="private emergency authority army vip passenger hov taxi bus coach delivery truck trailer motorcycle evehicle custom1 custom2" oneway="1"/>
    <type id="highway.motorway_link" priority="12" numLanes="1" speed="22.22" allow="private emergency authority army vip passenger hov taxi bus coach delivery truck trailer motorcycle evehicle custom1 custom2" oneway="1"/>
    <type id="highway.path" priority="1" numLanes="1" speed="2.78" allow="bicycle pedestrian" oneway="1" width="2.00"/>
    <type id="highway.pedestrian" priority="1" numLanes="1" speed="2.78" allow="pedestrian" oneway="1" width="2.00"/>
    <type id="highway.primary" priority="9" numLanes="2" speed="27.78" disallow="tram rail_urban rail rail_electric ship" oneway="0"/>
    <type id="highway.primary_link" priority="8" numLanes="1" speed="22.22" disallow="tram rail_urban rail rail_electric ship" oneway="0"/>
    <type id="highway.raceway" priority="14" numLanes="2" speed="83.33" allow="vip" oneway="0"/>
    <type id="highway.residential" priority="4" numLanes="1" speed="13.89" disallow="tram rail_urban rail rail_electric ship" oneway="0"/>
    <type id="highway.secondary" priority="7" numLanes="2" speed="27.78" disallow="tram rail_urban rail rail_electric ship" oneway="0"/>
    <type id="highway.secondary_link" priority="6" numLanes="1" speed="22.22" disallow="tram rail_urban rail rail_electric ship" oneway="0"/>
    <type id="highway.service" priority="2" numLanes="1" speed="5.56" allow="delivery bicycle pedestrian" oneway="0"/>
    <type id="highway.stairs" priority="1" numLanes="1" speed="1.39" allow="pedestrian" oneway="1" width="2.00"/>
    <type id="highway.step" priority="1" numLanes="1" speed="1.39" allow="pedestrian" oneway="1" width="2.00"/>
    <type id="highway.steps" priority="1" numLanes="1" speed="1.39" allow="pedestrian" oneway="1" width="2.00"/>
    <type id="highway.tertiary" priority="6" numLanes="1" speed="22.22" disallow="tram rail_urban rail rail_electric ship" oneway="0"/>
    <type id="highway.tertiary_link" priority="5" numLanes="1" speed="22.22" disallow="tram rail_urban rail rail_electric ship" oneway="0"/>
    <type id="highway.track" priority="1" numLanes="1" speed="5.56" disallow="tram rail_urban rail rail_electric ship" oneway="0"/>
    <type id="highway.trunk" priority="11" numLanes="2" speed="27.78" disallow="tram rail_urban rail rail_electric bicycle pedestrian ship" oneway="0"/>
    <type id="highway.trunk_link" priority="10" numLanes="1" speed="22.22" disallow="tram rail_urban rail rail_electric bicycle pedestrian ship" oneway="0"/>
    <type id="highway.unclassified" priority="5" numLanes="1" speed="13.89" disallow="tram rail_urban rail rail_electric ship" oneway="0"/>
    <type id="highway.unsurfaced" priority="1" numLanes="1" speed="8.33" disallow="tram rail_urban rail rail_electric ship" oneway="0"/>
    <type id="railway.light_rail" priority="15" numLanes="1" speed="27.78" allow="rail_urban" oneway="1"/>
    <type id="railway.preserved" priority="15" numLanes="1" speed="27.78" allow="rail" oneway="1"/>
    <type id="railway.rail" priority="15" numLanes="1" speed="83.33" allow="rail rail_electric" oneway="1"/>
    <type id="railway.subway" priority="15" numLanes="1" speed="27.78" allow="rail_urban" oneway="1"/>
    <type id="railway.tram" priority="15" numLanes="1" speed="13.89" allow="tram" oneway="1"/>

    <edge id=":1486922487_0" function="internal">
        <lane id=":1486922487_0_0" index="0" allow="delivery bicycle pedestrian" speed="3.65" length="4.67" shape="450.70,87.03 451.67,85.96 452.52,85.68 453.25,86.20 453.86,87.50"/>
    </edge>
    <edge id=":1486922497_0" function="internal">
        <lane id=":1486922497_0_0" index="0" allow="delivery bicycle pedestrian" speed="3.65" length="4.67" shape="378.94,239.40 377.50,239.54 376.69,239.17 376.49,238.30 376.91,236.92"/>
    </edge>
    <edge id=":1759597542_0" function="internal">
        <lane id=":1759597542_0_0" index="0" allow="delivery bicycle pedestrian" speed="5.19" length="4.85" shape="249.48,65.61 248.63,66.61 248.27,67.66 248.38,68.78 248.97,69.95"/>
    </edge>
    <edge id=":1759597542_1" function="internal">
        <lane id=":1759597542_1_0" index="0" allow="delivery bicycle pedestrian" speed="5.36" length="4.95" shape="242.85,63.53 243.97,64.15 245.10,64.31 246.22,64.00 247.35,63.22"/>
    </edge>
    <edge id=":1759597542_2" function="internal">
        <lane id=":1759597542_2_0" index="0" allow="delivery bicycle pedestrian" speed="5.56" length="8.93" shape="242.85,63.53 244.94,65.15 246.28,66.38 247.44,67.78 248.97,69.95"/>
    </edge>
    <edge id=":1759597567_0" function="internal">
        <lane id=":1759597567_0_0" index="0" allow="delivery bicycle pedestrian" speed="4.44" length="3.52" shape="289.85,182.81 289.14,181.69 288.49,180.95 287.90,180.62 287.37,180.67"/>
    </edge>
    <edge id=":1759597567_1" function="internal">
        <lane id=":1759597567_1_0" index="0" allow="delivery bicycle pedestrian" speed="5.56" length="7.64" shape="292.64,181.24 291.44,178.76 290.93,176.77 291.10,175.27 291.96,174.26"/>
    </edge>
    <edge id=":1759597567_2" function="internal">
        <lane id=":1759597567_2_0" index="0" allow="delivery bicycle pedestrian" speed="5.56" length="7.32" shape="293.68,176.96 291.85,178.14 290.59,178.93 289.30,179.67 287.37,180.67"/>
    </edge>
    <edge id=":1759597567_3" function="internal">
        <lane id=":1759597567_3_0" index="0" allow="delivery bicycle pedestrian" speed="3.65" length="4.67" shape="293.68,176.96 292.24,176.93 291.47,176.47 291.38,175.58 291.96,174.26"/>
    </edge>
    <edge id=":1759597567_4" function="internal">
        <lane id=":1759597567_4_0" index="0" allow="delivery bicycle pedestrian" speed="5.56" length="7.11" shape="285.84,177.86 287.71,176.89 288.96,176.18 290.18,175.40 291.96,174.26"/>
    </edge>
    <edge id=":1759597567_5" function="internal">
        <lane id=":1759597567_5_0" index="0" allow="delivery bicycle pedestrian" speed="3.65" length="4.68" shape="285.84,177.86 287.27,177.99 288.01,178.50 288.04,179.39 287.37,180.67"/>
    </edge>
    <edge id=":1759597604_0" function="internal">
        <lane id=":1759597604_0_0" index="0" allow="delivery bicycle pedestrian" speed="5.56" length="4.93" shape="227.61,193.36 226.15,193.38 225.14,193.34 224.16,193.16 222.75,192.76"/>
    </edge>
    <edge id=":1759597604_1" function="internal">
        <lane id=":1759597604_1_0" index="0" allow="delivery bicycle pedestrian" speed="3.65" length="4.67" shape="227.61,193.36 226.40,192.58 225.99,191.79 226.38,190.98 227.56,190.16"/>
    </edge>
    <edge id=":1759597604_2" function="internal">
        <lane id=":1759597604_2_0" index="0" allow="delivery bicycle pedestrian" speed="5.56" length="3.94" shape="223.68,189.69 224.80,190.01 225.59,190.15 226.39,190.18 227.56,190.16"/>
    </edge>
    <edge id=":1759597604_3" function="internal">
        <lane id=":1759597604_3_0" index="0" allow="delivery bicycle pedestrian" speed="3.65" length="4.67" shape="223.68,189.69 224.60,190.81 224.75,191.69 224.13,192.34 222.75,192.76"/>
    </edge>
    <edge id=":1759597678_0" function="internal">
        <lane id=":1759597678_0_0" index="0" allow="delivery bicycle pedestrian" speed="5.56" length="4.48" shape="245.46,89.73 244.50,90.64 243.77,91.18 242.96,91.61 241.75,92.17"/>
    </edge>
    <edge id=":1759597763_0" function="internal">
        <lane id=":1759597763_0_0" index="0" allow="delivery bicycle pedestrian" speed="5.56" length="5.13" shape="226.81,91.88 225.67,91.34 224.51,91.26 223.33,91.64 222.13,92.48"/>
    </edge>
    <edge id=":1759597763_1" function="internal">
        <lane id=":1759597763_1_0" index="0" allow="delivery bicycle pedestrian" speed="5.56" length="8.92" shape="226.81,91.88 224.65,90.37 223.25,89.21 222.05,87.85 220.46,85.74"/>
    </edge>
    <edge id=":1759597763_2" function="internal">
        <lane id=":1759597763_2_0" index="0" allow="delivery bicycle pedestrian" speed="5.14" length="4.89" shape="220.01,90.09 220.87,89.08 221.23,88.02 221.09,86.90 220.46,85.74"/>
    </edge>
    <edge id=":1759597920_0" function="internal">
        <lane id=":1759597920_0_0" index="0" allow="delivery bicycle pedestrian" speed="5.56" length="4.75" shape="349.79,79.25 349.82,80.66 349.80,81.62 349.72,82.59 349.53,83.98"/>
    </edge>
    <edge id=":1759597920_1" function="internal">
        <lane id=":1759597920_1_0" index="0" allow="delivery bicycle pedestrian" speed="3.65" length="4.67" shape="349.79,79.25 349.01,80.46 348.22,80.87 347.41,80.49 346.59,79.30"/>
    </edge>
    <edge id=":1759597920_2" function="internal">
        <lane id=":1759597920_2_0" index="0" allow="delivery bicycle pedestrian" speed="5.56" length="4.24" shape="346.37,83.53 346.53,82.28 346.60,81.42 346.61,80.56 346.59,79.30"/>
    </edge>
    <edge id=":1759597920_3" function="internal">
        <lane id=":1759597920_3_0" index="0" allow="delivery bicycle pedestrian" speed="3.65" length="4.67" shape="346.37,83.53 347.33,82.45 348.18,82.17 348.91,82.68 349.53,83.98"/>
    </edge>
    <edge id=":1759597985_0" function="internal">
        <lane id=":1759597985_0_0" index="0" allow="delivery bicycle pedestrian" speed="5.56" length="5.59" shape="226.32,59.72 227.61,60.84 228.86,61.56 230.07,61.90 231.25,61.84"/>
    </edge>
    <edge id=":1759597985_1" function="internal">
        <lane id=":1759597985_1_0" index="0" allow="delivery bicycle pedestrian" speed="5.56" length="6.05" shape="225.63,64.02 227.23,63.19 228.34,62.65 229.51,62.26 231.25,61.84"/>
    </edge>
    <edge id=":1759597996_0" function="internal">
        <lane id=":1759597996_0_0" index="0" allow="delivery bicycle pedestrian" speed="5.36" length="4.96" shape="310.85,164.44 310.18,165.53 309.97,166.64 310.22,167.79 310.95,168.95"/>
    </edge>
    <edge id=":1759597996_1" function="internal">
        <lane id=":1759597996_1_0" index="0" allow="delivery bicycle pedestrian" speed="5.56" length="8.95" shape="310.85,164.44 309.12,166.45 307.83,167.73 306.37,168.83 304.15,170.27"/>
    </edge>
    <edge id=":1759597996_2" function="internal">
        <lane id=":1759597996_2_0" index="0" allow="delivery bicycle pedestrian" speed="3.65" length="4.67" shape="310.85,164.44 309.47,164.84 308.60,164.63 308.24,163.81 308.40,162.38"/>
    </edge>
    <edge id=":1759597996_3" function="internal">
        <lane id=":1759597996_3_0" index="0" allow="delivery bicycle pedestrian" speed="5.56" length="7.98" shape="302.43,167.57 304.41,166.29 305.71,165.31 306.86,164.17 308.40,162.38"/>
    </edge>
    <edge id=":1759597996_4" function="internal">
        <lane id=":1759597996_4_0" index="0" allow="delivery bicycle pedestrian" speed="5.56" length="7.45" shape="302.43,167.57 303.61,167.27 305.01,167.73 306.63,168.97 308.46,170.97"/>
    </edge>
    <edge id=":1759597996_5" function="internal">
        <lane id=":1759597996_5_0" index="0" allow="delivery bicycle pedestrian" speed="3.65" length="4.67" shape="302.43,167.57 303.87,167.60 304.64,168.06 304.73,168.95 304.15,170.27"/>
    </edge>
    <edge id=":1759598077_0" function="internal">
        <lane id=":1759598077_0_0" index="0" allow="delivery bicycle pedestrian" speed="5.56" length="6.16" shape="152.33,160.22 150.61,159.26 149.10,158.84 147.78,158.95 146.66,159.60"/>
    </edge>
    <edge id=":1759598077_1" function="internal">
        <lane id=":1759598077_1_0" index="0" allow="delivery bicycle pedestrian" speed="5.56" length="11.50" shape="152.33,160.22 149.90,158.02 148.99,155.72 149.59,153.32 151.70,150.81"/>
    </edge>
    <edge id=":1759598077_2" function="internal">
        <lane id=":1759598077_2_0" index="0" allow="delivery bicycle pedestrian" speed="3.65" length="4.67" shape="152.33,160.22 151.78,158.88 151.90,158.00 152.68,157.56 154.12,157.56"/>
    </edge>
    <edge id=":1759598077_3" function="internal">
        <lane id=":1759598077_3_0" index="0" allow="delivery bicycle pedestrian" speed="4.82" length="5.33" shape="153.83,153.21 152.85,154.37 152.57,155.48 152.99,156.54 154.12,157.56"/>
    </edge>
    <edge id=":1759598077_4" function="internal">
        <lane id=":1759598077_4_0" index="0" allow="delivery bicycle pedestrian" speed="5.56" length="9.61" shape="153.83,153.21 146.66,159.60"/>
    </edge>
    <edge id=":1759598077_5" function="internal">
        <lane id=":1759598077_5_0" index="0" allow="delivery bicycle pedestrian" speed="3.65" length="4.67" shape="153.83,153.21 152.40,153.40 151.57,153.07 151.34,152.21 151.70,150.81"/>
    </edge>
    <edge id=":1759598077_6" function="internal">
        <lane id=":1759598077_6_0" index="0" allow="delivery bicycle pedestrian" speed="5.56" length="9.62" shape="144.52,157.22 151.70,150.81"/>
    </edge>
    <edge id=":1759598077_7" function="internal">
        <lane id=":1759598077_7_0" index="0" allow="delivery bicycle pedestrian" speed="5.56" length="10.42" shape="144.52,157.22 146.58,155.93 148.87,155.56 151.38,156.10 154.12,157.56"/>
    </edge>
    <edge id=":1759598077_8" function="internal">
        <lane id=":1759598077_8_0" index="0" allow="delivery bicycle pedestrian" speed="3.65" length="4.67" shape="144.52,157.22 145.95,157.02 146.78,157.34 147.01,158.21 146.66,159.60"/>
    </edge>
    <edge id=":1759598083_0" function="internal">
        <lane id=":1759598083_0_0" index="0" allow="delivery bicycle pedestrian" speed="5.56" length="4.45" shape="250.75,79.57 250.62,80.88 250.47,81.78 250.18,82.64 249.64,83.84"/>
    </edge>
    <edge id=":1759598126_0" function="internal">
        <lane id=":1759598126_0_0" index="0" allow="delivery bicycle pedestrian" speed="5.56" length="0.56" shape="248.25,86.81 248.18,86.96 248.12,87.06 248.05,87.15 247.93,87.26"/>
    </edge>
    <edge id=":1759598202_0" function="internal">
        <lane id=":1759598202_0_0" index="0" allow="delivery bicycle pedestrian" speed="5.56" length="4.45" shape="235.57,93.79 234.26,93.90 233.35,93.90 232.45,93.76 231.17,93.44"/>
    </edge>
    <edge id=":1759598224_0" function="internal">
        <lane id=":1759598224_0_0" index="0" allow="delivery bicycle pedestrian" speed="3.90" length="2.77" shape="321.21,3.80 320.67,3.25 320.10,3.02 319.49,3.12 318.85,3.55"/>
    </edge>
    <edge id=":1759598224_1" function="internal">
        <lane id=":1759598224_1_0" index="0" allow="delivery bicycle pedestrian" speed="3.65" length="2.08" shape="321.21,3.80 321.15,2.36 321.44,1.79"/>
    </edge>
    <edge id=":1759598224_4" function="internal">
        <lane id=":1759598224_4_0" index="0" allow="delivery bicycle pedestrian" speed="3.65" length="2.59" shape="321.44,1.79 321.56,1.57 322.45,1.42 323.80,1.92"/>
    </edge>
    <edge id=":1759598224_2" function="internal">
        <lane id=":1759598224_2_0" index="0" allow="delivery bicycle pedestrian" speed="5.56" length="8.32" shape="316.72,1.17 318.64,-0.11 320.47,-0.42 322.18,0.26 323.80,1.92"/>
    </edge>
    <edge id=":1759598224_3" function="internal">
        <lane id=":1759598224_3_0" index="0" allow="delivery bicycle pedestrian" speed="3.65" length="2.63" shape="316.72,1.17 318.15,0.96 318.98,1.29 319.06,1.57"/>
    </edge>
    <edge id=":1759598224_5" function="internal">
        <lane id=":1759598224_5_0" index="0" allow="delivery bicycle pedestrian" speed="3.65" length="2.04" shape="319.06,1.57 319.21,2.15 318.85,3.55"/>
    </edge>
    <edge id=":1759598231_0" function="internal">
        <lane id=":1759598231_0_0" index="0" allow="delivery bicycle pedestrian" speed="5.56" length="5.34" shape="219.44,72.05 219.67,70.88 219.49,69.68 218.91,68.46 217.94,67.21"/>
    </edge>
    <edge id=":1759598231_1" function="internal">
        <lane id=":1759598231_1_0" index="0" allow="delivery bicycle pedestrian" speed="5.56" length="5.90" shape="219.44,72.05 220.07,70.43 220.60,69.35 221.27,68.35 222.31,66.94"/>
    </edge>
    <edge id=":1759598239_0" function="internal">
        <lane id=":1759598239_0_0" index="0" allow="delivery bicycle pedestrian" speed="3.65" length="4.67" shape="51.55,243.88 50.12,244.07 49.29,243.73 49.06,242.87 49.44,241.48"/>
    </edge>
    <edge id=":1797222842_0" function="internal">
        <lane id=":1797222842_0_0" index="0" disallow="tram rail_urban rail rail_electric bicycle pedestrian ship" speed="4.80" length="5.36" shape="168.62,20.39 167.75,19.13 166.75,18.57 165.61,18.72 164.33,19.56"/>
    </edge>
    <edge id=":1797222842_1" function="internal">
        <lane id=":1797222842_1_0" index="0" disallow="tram rail_urban rail rail_electric bicycle pedestrian ship" speed="27.78" length="6.32" shape="169.05,15.35 164.33,19.56"/>
        <lane id=":1797222842_1_1" index="1" disallow="tram rail_urban rail rail_electric bicycle pedestrian ship" speed="27.78" length="6.32" shape="166.91,12.97 162.20,17.18"/>
        <lane id=":1797222842_1_2" index="2" disallow="tram rail_urban rail rail_electric bicycle pedestrian ship" speed="27.78" length="6.32" shape="164.78,10.58 160.07,14.79"/>
    </edge>
    <edge id=":1797222854_0" function="internal">
        <lane id=":1797222854_0_0" index="0" allow="delivery bicycle pedestrian" speed="5.56" length="5.27" shape="203.38,34.03 203.36,35.18 203.68,36.35 204.34,37.52 205.36,38.70"/>
    </edge>
    <edge id=":1797222854_1" function="internal">
        <lane id=":1797222854_1_0" index="0" allow="delivery bicycle pedestrian" speed="5.56" length="5.63" shape="203.38,34.03 203.04,35.65 202.63,36.72 201.99,37.69 200.99,39.02"/>
    </edge>
    <edge id=":1797222867_0" function="internal">
        <lane id=":1797222867_0_0" index="0" allow="delivery bicycle pedestrian" speed="5.56" length="5.45" shape="197.64,45.57 196.43,44.46 195.23,43.73 194.05,43.38 192.87,43.42"/>
    </edge>
    <edge id=":1797222867_1" function="internal">
        <lane id=":1797222867_1_0" index="0" allow="delivery bicycle pedestrian" speed="5.56" length="5.91" shape="198.32,41.25 196.79,42.11 195.71,42.66 194.58,43.05 192.87,43.42"/>
    </edge>
    <edge id=":2717808171_0" function="internal">
        <lane id=":2717808171_0_0" index="0" allow="delivery bicycle pedestrian" speed="5.56" length="3.66" shape="287.20,180.76 283.93,182.42"/>
    </edge>
    <edge id=":2717808171_1" function="internal">
        <lane id=":2717808171_1_0" index="0" allow="delivery bicycle pedestrian" speed="3.65" length="2.34" shape="287.20,180.76 285.76,180.63 285.02,180.13"/>
    </edge>
    <edge id=":2717808171_4" function="internal">
        <lane id=":2717808171_4_0" index="0" allow="delivery bicycle pedestrian" speed="3.65" length="2.34" shape="285.02,180.13 284.99,179.23 285.66,177.95"/>
    </edge>
    <edge id=":2717808171_2" function="internal">
        <lane id=":2717808171_2_0" index="0" allow="delivery bicycle pedestrian" speed="5.56" length="3.57" shape="282.48,179.57 285.66,177.95"/>
    </edge>
    <edge id=":2717808171_3" function="internal">
        <lane id=":2717808171_3_0" index="0" allow="delivery bicycle pedestrian" speed="3.65" length="2.34" shape="282.48,179.57 283.91,179.74 284.63,180.27"/>
    </edge>
    <edge id=":2717808171_5" function="internal">
        <lane id=":2717808171_5_0" index="0" allow="delivery bicycle pedestrian" speed="3.65" length="2.34" shape="284.63,180.27 284.64,181.16 283.93,182.42"/>
    </edge>
    <edge id=":2717808173_0" function="internal">
        <lane id=":2717808173_0_0" index="0" allow="delivery bicycle pedestrian" speed="5.56" length="5.03" shape="315.57,158.83 312.33,162.67"/>
    </edge>
    <edge id=":2717808173_1" function="internal">
        <lane id=":2717808173_1_0" index="0" allow="delivery bicycle pedestrian" speed="3.65" length="4.67" shape="315.57,158.83 314.18,159.23 313.31,159.02 312.96,158.20 313.12,156.77"/>
    </edge>
    <edge id=":2717808173_2" function="internal">
        <lane id=":2717808173_2_0" index="0" allow="delivery bicycle pedestrian" speed="5.56" length="5.03" shape="309.88,160.61 313.12,156.77"/>
    </edge>
    <edge id=":2717808173_3" function="internal">
        <lane id=":2717808173_3_0" index="0" allow="delivery bicycle pedestrian" speed="3.65" length="4.67" shape="309.88,160.61 311.27,160.21 312.14,160.42 312.49,161.24 312.33,162.67"/>
    </edge>

    <edge id="-164316021" from="1759598077" to="1759598239" priority="2" type="highway.service" shape="148.56,155.75 103.87,195.80 50.49,242.68">
        <lane id="-164316021_0" index="0" allow="delivery bicycle pedestrian" speed="5.56" length="127.08" shape="146.66,159.60 104.94,197.00 51.55,243.88"/>
    </edge>
    <edge id="-164316057" from="1759598224" to="1759597542" priority="2" type="highway.service">
        <lane id="-164316057_0" index="0" allow="delivery bicycle pedestrian" speed="5.56" length="93.08" shape="318.85,3.55 249.48,65.61"/>
    </edge>
    <edge id="-164316066" from="1759597604" to="1759598077" priority="2" type="highway.service" shape="225.13,191.80 197.88,183.59 176.80,174.78 148.56,155.75">
        <lane id="-164316066_0" index="0" allow="delivery bicycle pedestrian" speed="5.56" length="78.22" shape="222.75,192.76 197.34,185.09 176.04,176.20 152.33,160.22"/>
    </edge>
    <edge id="-585573723" from="1486922487" to="1486922497" priority="2" type="highway.service" shape="452.28,87.27 449.34,106.72 444.49,138.50 441.66,150.36 439.41,157.36 431.28,174.33 424.89,187.33 406.69,212.31 388.38,229.61 375.97,239.76">
        <lane id="-585573723_0" index="0" allow="delivery bicycle pedestrian" speed="5.56" length="175.45" shape="453.86,87.50 450.92,106.96 446.06,138.81 443.20,150.80 440.90,157.96 432.72,175.03 426.27,188.16 407.89,213.37 389.44,230.82 378.94,239.40"/>
    </edge>
    <edge id="-585573741" from="1759597763" to="1759598077" priority="2" type="highway.service">
        <lane id="-585573741_0" index="0" allow="delivery bicycle pedestrian" speed="5.56" length="91.40" shape="222.13,92.48 153.83,153.21"/>
    </edge>
    <edge id="-585573742" from="2717808171" to="1759597604" priority="2" type="highway.service" shape="285.28,179.94 273.02,186.18 245.56,191.47 225.13,191.80">
        <lane id="-585573742_0" index="0" allow="delivery bicycle pedestrian" speed="5.56" length="58.10" shape="283.93,182.42 273.55,187.71 245.73,193.07 227.61,193.36"/>
    </edge>
    <edge id="-585573743" from="1759597996" to="1759597567" priority="2" type="highway.service">
        <lane id="-585573743_0" index="0" allow="delivery bicycle pedestrian" speed="5.56" length="12.42" shape="304.15,170.27 293.68,176.96"/>
    </edge>
    <edge id="-585573744" from="2717808173" to="1759597996" priority="2" type="highway.service">
        <lane id="-585573744_0" index="0" allow="delivery bicycle pedestrian" speed="5.56" length="2.30" shape="312.33,162.67 310.85,164.44"/>
    </edge>
    <edge id="-585573745" from="1759597567" to="2717808171" priority="2" type="highway.service">
        <lane id="-585573745_0" index="0" allow="delivery bicycle pedestrian" speed="5.56" length="0.20" shape="287.37,180.67 287.20,180.76"/>
    </edge>
    <edge id="-585573746" from="1759597920" to="2717808173" priority="2" type="highway.service" shape="348.23,81.78 345.03,104.20 338.67,122.09 324.75,145.44 312.38,160.14">
        <lane id="-585573746_0" index="0" allow="delivery bicycle pedestrian" speed="5.56" length="83.87" shape="349.53,83.98 346.59,104.58 340.12,122.77 326.05,146.37 315.57,158.83"/>
    </edge>
    <edge id="-585573747" from="1759598224" to="1759597920" priority="2" type="highway.service" shape="320.42,0.00 327.66,9.93 336.58,24.78 343.77,42.71 347.91,61.70 348.23,81.78">
        <lane id="-585573747_0" index="0" allow="delivery bicycle pedestrian" speed="5.56" length="83.39" shape="323.80,1.92 328.99,9.04 338.02,24.06 345.31,42.24 349.50,61.52 349.79,79.25"/>
    </edge>
    <edge id="102780913#0" from="1187044733" to="1797222842" priority="11" type="highway.trunk" spreadType="center">
        <lane id="102780913#0_0" index="0" disallow="tram rail_urban rail rail_electric bicycle pedestrian ship" speed="27.78" length="13.75" shape="179.30,6.19 169.05,15.35"/>
        <lane id="102780913#0_1" index="1" disallow="tram rail_urban rail rail_electric bicycle pedestrian ship" speed="27.78" length="13.75" shape="177.16,3.80 166.91,12.97"/>
        <lane id="102780913#0_2" index="2" disallow="tram rail_urban rail rail_electric bicycle pedestrian ship" speed="27.78" length="13.75" shape="175.03,1.42 164.78,10.58"/>
    </edge>
    <edge id="102780913#1" from="1797222842" to="1187044863" priority="11" type="highway.trunk" spreadType="center" shape="165.54,14.19 97.52,74.93 0.00,164.16">
        <lane id="102780913#1_0" index="0" disallow="tram rail_urban rail rail_electric bicycle pedestrian ship" speed="27.78" length="218.90" shape="164.33,19.56 99.66,77.31 2.16,166.52"/>
        <lane id="102780913#1_1" index="1" disallow="tram rail_urban rail rail_electric bicycle pedestrian ship" speed="27.78" length="218.90" shape="162.20,17.18 97.52,74.93 -0.00,164.16"/>
        <lane id="102780913#1_2" index="2" disallow="tram rail_urban rail rail_electric bicycle pedestrian ship" speed="27.78" length="218.90" shape="160.07,14.79 95.37,72.56 -2.16,161.80"/>
    </edge>
    <edge id="135382788" from="1486919397" to="3878436155" priority="1" type="highway.footway" spreadType="center" shape="382.23,248.83 398.53,236.43 406.51,231.83 416.28,229.94 427.87,225.27 436.94,218.62 444.74,209.68 447.49,196.35 449.80,185.19 454.83,174.28 459.27,164.96 461.70,154.95 462.46,147.43 464.44,139.88 468.99,129.70 474.36,124.28 480.73,119.26 484.33,111.97 485.51,108.06 486.89,101.39 488.19,97.76 490.88,95.11 494.56,92.31 496.05,87.17 495.97,79.38">
        <lane id="135382788_0" index="0" allow="pedestrian" speed="2.78" length="219.57" width="2.00" shape="382.23,248.83 398.53,236.43 406.51,231.83 416.28,229.94 427.87,225.27 436.94,218.62 444.74,209.68 447.49,196.35 449.80,185.19 454.83,174.28 459.27,164.96 461.70,154.95 462.46,147.43 464.44,139.88 468.99,129.70 474.36,124.28 480.73,119.26 484.33,111.97 485.51,108.06 486.89,101.39 488.19,97.76 490.88,95.11 494.56,92.31 496.05,87.17 495.97,79.38"/>
    </edge>
    <edge id="135385547" from="1759597996" to="1486922498" priority="2" type="highway.service" spreadType="center">
        <lane id="135385547_0" index="0" allow="delivery bicycle pedestrian" speed="5.56" length="96.14" shape="310.95,168.95 371.56,243.57"/>
        <lane id="135385547_1" index="1" allow="delivery bicycle pedestrian" speed="5.56" length="96.14" shape="308.46,170.97 369.08,245.59"/>
    </edge>
    <edge id="135421965" from="1487454570" to="1486922497" priority="1" type="highway.footway" spreadType="center">
        <lane id="135421965_0" index="0" allow="pedestrian" speed="2.78" length="88.65" width="2.00" shape="317.56,166.93 373.02,236.09"/>
    </edge>
    <edge id="164316021" from="1759598239" to="1759598077" priority="2" type="highway.service" shape="50.49,242.68 103.87,195.80 148.56,155.75">
        <lane id="164316021_0" index="0" allow="delivery bicycle pedestrian" speed="5.56" length="127.04" shape="49.44,241.48 102.81,194.61 144.52,157.22"/>
    </edge>
    <edge id="164316057" from="1759597542" to="1759598224" priority="2" type="highway.service">
        <lane id="164316057_0" index="0" allow="delivery bicycle pedestrian" speed="5.56" length="93.08" shape="247.35,63.22 316.72,1.17"/>
    </edge>
    <edge id="164316066" from="1759598077" to="1759597604" priority="2" type="highway.service" shape="148.56,155.75 176.80,174.78 197.88,183.59 225.13,191.80">
        <lane id="164316066_0" index="0" allow="delivery bicycle pedestrian" speed="5.56" length="77.26" shape="154.12,157.56 177.56,173.37 198.43,182.08 223.68,189.69"/>
    </edge>
    <edge id="164316067#0" from="1759598126" to="1759597678" priority="2" type="highway.service" spreadType="center">
        <lane id="164316067#0_0" index="0" allow="delivery bicycle pedestrian" speed="5.56" length="3.49" shape="247.93,87.26 245.46,89.73"/>
    </edge>