<?xml version="1.0" encoding="UTF-8"?>

<!-- generated on Thu Sep  5 16:46:01 2019 by Eclipse SUMO netconvert Version 1.2.0
<configuration xmlns:xsi="http://www.w3.org/2001/XMLSchema-instance" xsi:noNamespaceSchemaLocation="http://sumo.dlr.de/xsd/netconvertConfiguration.xsd">

    <input>
        <opendrive-files value="simulations/Town02/Town02.xodr"/>
    </input>

    <output>
        <output-file value="simulations/Town02/Town02.net.xml"/>
    </output>

    <tls_building>
        <tls.left-green.time value="0"/>
    </tls_building>

    <junctions>
        <rectangular-lane-cut value="true"/>
    </junctions>

</configuration>
-->

<net version="1.1" junctionCornerDetail="5" rectangularLaneCut="true" limitTurnSpeed="5.50" xmlns:xsi="http://www.w3.org/2001/XMLSchema-instance" xsi:noNamespaceSchemaLocation="http://sumo.dlr.de/xsd/net_file.xsd">

    <location netOffset="5.77,305.02" convBoundary="0.00,0.00,197.33,197.39" origBoundary="-5.77,-305.02,191.56,-107.63" projParameter="!"/>

    <type id="bidirectional" priority="1" speed="1.39" disallow="tram rail_urban rail rail_electric pedestrian ship" width="3.65"/>
    <type id="border" priority="0" speed="1.39" disallow="all" discard="1" width="0.10"/>
    <type id="driving" priority="1" speed="13.89" disallow="tram rail_urban rail rail_electric pedestrian ship" width="3.65"/>
    <type id="entry" priority="1" speed="22.22" disallow="tram rail_urban rail rail_electric pedestrian ship" width="3.65"/>
    <type id="exit" priority="1" speed="22.22" disallow="tram rail_urban rail rail_electric pedestrian ship" width="3.65"/>
    <type id="median" priority="0" speed="1.39" disallow="all" discard="1" width="0.10"/>
    <type id="mwyEntry" priority="1" speed="22.22" allow="private emergency authority army vip passenger hov taxi bus coach delivery truck trailer motorcycle evehicle custom1 custom2" width="3.65"/>
    <type id="mwyExit" priority="1" speed="22.22" allow="private emergency authority army vip passenger hov taxi bus coach delivery truck trailer motorcycle evehicle custom1 custom2" width="3.65"/>
    <type id="none" priority="0" speed="1.39" disallow="all" discard="1" width="1.00"/>
    <type id="offRamp" priority="1" speed="22.22" allow="private emergency authority army vip passenger hov taxi bus coach delivery truck trailer motorcycle evehicle custom1 custom2" width="3.65"/>
    <type id="onRamp" priority="1" speed="22.22" allow="private emergency authority army vip passenger hov taxi bus coach delivery truck trailer motorcycle evehicle custom1 custom2" width="3.65"/>
    <type id="parking" priority="1" speed="1.39" disallow="tram rail_urban rail rail_electric pedestrian ship" width="2.50"/>
    <type id="rail" priority="3" speed="33.33" allow="rail_urban rail rail_electric" width="3.65"/>
    <type id="restricted" priority="0" speed="13.89" disallow="all" width="3.65"/>
    <type id="roadWorks" priority="0" speed="1.39" allow="authority" width="3.65"/>
    <type id="shoulder" priority="0" speed="1.39" disallow="all" discard="1" width="1.00"/>
    <type id="special1" priority="1" speed="22.22" allow="custom1" discard="1" width="3.65"/>
    <type id="special2" priority="1" speed="22.22" allow="custom2" discard="1" width="3.65"/>
    <type id="special3" priority="1" speed="22.22" allow="custom1 custom2" discard="1" width="3.65"/>
    <type id="stop" priority="1" speed="13.89" disallow="tram rail_urban rail rail_electric pedestrian ship" width="3.65"/>
    <type id="tram" priority="2" speed="13.89" allow="tram" width="3.65"/>

    <edge id=":16.1_0" function="internal">
        <lane id=":16.1_0_0" index="0" disallow="tram rail_urban rail rail_electric pedestrian ship" speed="13.89" length="0.33" width="4.00" shape="-2.00,187.42 -2.00,187.09"/>
    </edge>
    <edge id=":16.1_1" function="internal">
        <lane id=":16.1_1_0" index="0" disallow="tram rail_urban rail rail_electric pedestrian ship" speed="13.89" length="0.33" width="4.00" shape="2.00,187.09 2.00,187.43"/>
    </edge>
    <edge id=":16.12_0" function="internal">
        <lane id=":16.12_0_0" index="0" disallow="tram rail_urban rail rail_electric pedestrian ship" speed="13.89" length="0.96" width="4.00" shape="10.42,199.39 10.13,199.39 9.94,199.38 9.74,199.36 9.46,199.32"/>
    </edge>
    <edge id=":16.12_1" function="internal">
        <lane id=":16.12_1_0" index="0" disallow="tram rail_urban rail rail_electric pedestrian ship" speed="13.89" length="0.25" width="4.00" shape="10.16,195.38 10.24,195.39 10.29,195.39 10.34,195.39 10.42,195.39"/>
    </edge>
    <edge id=":17.13_0" function="internal">
        <lane id=":17.13_0_0" index="0" disallow="tram rail_urban rail rail_electric pedestrian ship" speed="13.89" length="0.34" width="4.00" shape="195.33,10.08 195.33,9.74"/>
    </edge>
    <edge id=":17.13_1" function="internal">
        <lane id=":17.13_1_0" index="0" disallow="tram rail_urban rail rail_electric pedestrian ship" speed="13.89" length="0.34" width="4.00" shape="199.33,9.74 199.33,10.08"/>
    </edge>
    <edge id=":19.17_0" function="internal">
        <lane id=":19.17_0_0" index="0" disallow="tram rail_urban rail rail_electric pedestrian ship" speed="13.89" length="0.91" width="4.00" shape="188.15,2.04 187.88,1.99 187.70,1.98 187.51,1.99 187.24,2.00"/>
    </edge>
    <edge id=":19.17_1" function="internal">
        <lane id=":19.17_1_0" index="0" disallow="tram rail_urban rail rail_electric pedestrian ship" speed="13.89" length="1.80" width="4.00" shape="187.24,-2.00 187.78,-2.01 188.14,-2.01 188.51,-1.97 189.03,-1.86"/>
    </edge>
    <edge id=":2.0_0" function="internal">
        <lane id=":2.0_0_0" index="0" disallow="tram rail_urban rail rail_electric pedestrian ship" speed="13.89" length="0.10" width="4.00" shape="-1.79,10.08 -1.79,10.08"/>
    </edge>
    <edge id=":2.0_1" function="internal">
        <lane id=":2.0_1_0" index="0" disallow="tram rail_urban rail rail_electric pedestrian ship" speed="13.89" length="0.10" width="4.00" shape="2.21,10.08 2.21,10.08"/>
    </edge>
    <edge id=":2.18_0" function="internal">
        <lane id=":2.18_0_0" index="0" disallow="tram rail_urban rail rail_electric pedestrian ship" speed="13.89" length="0.10" width="4.00" shape="10.15,2.08 10.15,2.08"/>
    </edge>
    <edge id=":2.18_1" function="internal">
        <lane id=":2.18_1_0" index="0" disallow="tram rail_urban rail rail_electric pedestrian ship" speed="13.89" length="0.10" width="4.00" shape="10.15,-1.92 10.15,-1.92"/>
    </edge>
    <edge id=":20_0" function="internal">
        <lane id=":20_0_0" index="0" disallow="tram rail_urban rail rail_electric pedestrian ship" speed="6.81" length="9.76" width="4.00" shape="195.32,73.65 194.94,71.03 193.79,69.15 191.88,68.03 189.21,67.67"/>
    </edge>
    <edge id=":20_1" function="internal">
        <lane id=":20_1_0" index="0" disallow="tram rail_urban rail rail_electric pedestrian ship" speed="13.89" length="15.98" width="4.00" shape="195.32,73.65 195.32,57.67"/>
    </edge>
    <edge id=":20_2" function="internal">
        <lane id=":20_2_0" index="0" disallow="tram rail_urban rail rail_electric pedestrian ship" speed="13.89" length="15.98" width="4.00" shape="199.32,57.67 199.32,73.66"/>
    </edge>
    <edge id=":20_3" function="internal">
        <lane id=":20_3_0" index="0" disallow="tram rail_urban rail rail_electric pedestrian ship" speed="8.59" length="7.04" width="4.00" shape="199.32,57.67 198.69,62.03 197.32,64.28"/>
    </edge>
    <edge id=":20_5" function="internal">
        <lane id=":20_5_0" index="0" disallow="tram rail_urban rail rail_electric pedestrian ship" speed="8.59" length="9.16" width="4.00" shape="197.32,64.28 196.79,65.15 193.63,67.03 189.21,67.67"/>
    </edge>
    <edge id=":20_4" function="internal">
        <lane id=":20_4_0" index="0" disallow="tram rail_urban rail rail_electric pedestrian ship" speed="8.57" length="16.23" width="4.00" shape="189.19,63.67 193.63,64.28 196.79,66.15 198.69,69.27 199.32,73.66"/>
    </edge>
    <edge id=":27_0" function="internal">
        <lane id=":27_0_0" index="0" disallow="tram rail_urban rail rail_electric pedestrian ship" speed="13.89" length="16.24" width="4.00" shape="47.46,74.14 47.46,57.90"/>
    </edge>
    <edge id=":27_1" function="internal">
        <lane id=":27_1_0" index="0" disallow="tram rail_urban rail rail_electric pedestrian ship" speed="8.62" length="7.00" width="4.00" shape="47.46,74.14 48.10,69.77 49.46,67.57"/>
    </edge>
    <edge id=":27_6" function="internal">
        <lane id=":27_6_0" index="0" disallow="tram rail_urban rail rail_electric pedestrian ship" speed="8.62" length="9.35" width="4.00" shape="49.46,67.57 50.03,66.64 53.24,64.76 57.74,64.12"/>
    </edge>
    <edge id=":27_2" function="internal">
        <lane id=":27_2_0" index="0" disallow="tram rail_urban rail rail_electric pedestrian ship" speed="6.88" length="9.92" width="4.00" shape="57.76,68.12 55.00,68.51 53.03,69.64 51.86,71.51 51.46,74.14"/>
    </edge>
    <edge id=":27_3" function="internal">
        <lane id=":27_3_0" index="0" disallow="tram rail_urban rail rail_electric pedestrian ship" speed="8.66" length="16.56" width="4.00" shape="57.76,68.12 53.25,67.50 50.03,65.58 48.10,62.38 47.46,57.90"/>
    </edge>
    <edge id=":27_4" function="internal">
        <lane id=":27_4_0" index="0" disallow="tram rail_urban rail rail_electric pedestrian ship" speed="6.91" length="10.09" width="4.00" shape="51.46,57.90 51.85,60.63 53.03,62.58 54.99,63.74 57.74,64.12"/>
    </edge>
    <edge id=":27_5" function="internal">
        <lane id=":27_5_0" index="0" disallow="tram rail_urban rail rail_electric pedestrian ship" speed="13.89" length="16.24" width="4.00" shape="51.46,57.90 51.46,74.14"/>
    </edge>
    <edge id=":3.12_0" function="internal">
        <lane id=":3.12_0_0" index="0" disallow="tram rail_urban rail rail_electric pedestrian ship" speed="13.89" length="0.36" width="4.00" shape="187.61,199.34 187.25,199.34"/>
    </edge>
    <edge id=":3.12_1" function="internal">
        <lane id=":3.12_1_0" index="0" disallow="tram rail_urban rail rail_electric pedestrian ship" speed="13.89" length="0.37" width="4.00" shape="187.24,195.34 187.35,195.34 187.43,195.34 187.50,195.34 187.61,195.33"/>
    </edge>
    <edge id=":3.15_0" function="internal">
        <lane id=":3.15_0_0" index="0" disallow="tram rail_urban rail rail_electric pedestrian ship" speed="13.89" length="0.31" width="4.00" shape="195.30,187.12 195.30,186.81"/>
    </edge>
    <edge id=":3.15_1" function="internal">
        <lane id=":3.15_1_0" index="0" disallow="tram rail_urban rail rail_electric pedestrian ship" speed="13.89" length="0.31" width="4.00" shape="199.30,186.81 199.30,187.12"/>
    </edge>
    <edge id=":34_0" function="internal">
        <lane id=":34_0_0" index="0" disallow="tram rail_urban rail rail_electric pedestrian ship" speed="6.85" length="9.87" width="4.00" shape="137.77,73.85 137.38,71.22 136.20,69.35 134.25,68.23 131.52,67.87"/>
    </edge>
    <edge id=":34_1" function="internal">
        <lane id=":34_1_0" index="0" disallow="tram rail_urban rail rail_electric pedestrian ship" speed="8.56" length="16.13" width="4.00" shape="137.77,73.85 138.39,69.47 140.25,66.34 143.37,64.45 147.74,63.81"/>
    </edge>
    <edge id=":34_2" function="internal">
        <lane id=":34_2_0" index="0" disallow="tram rail_urban rail rail_electric pedestrian ship" speed="6.80" length="9.68" width="4.00" shape="147.76,67.81 145.13,68.20 143.26,69.33 142.14,71.21 141.77,73.84"/>
    </edge>
    <edge id=":34_3" function="internal">
        <lane id=":34_3_0" index="0" disallow="tram rail_urban rail rail_electric pedestrian ship" speed="13.89" length="16.24" width="4.00" shape="147.76,67.81 131.52,67.87"/>
    </edge>
    <edge id=":34_4" function="internal">
        <lane id=":34_4_0" index="0" disallow="tram rail_urban rail rail_electric pedestrian ship" speed="13.89" length="16.24" width="4.00" shape="131.51,63.87 147.74,63.81"/>
    </edge>
    <edge id=":34_5" function="internal">
        <lane id=":34_5_0" index="0" disallow="tram rail_urban rail rail_electric pedestrian ship" speed="8.60" length="7.24" width="4.00" shape="131.51,63.87 135.99,64.48 138.34,65.84"/>
    </edge>
    <edge id=":34_6" function="internal">
        <lane id=":34_6_0" index="0" disallow="tram rail_urban rail rail_electric pedestrian ship" speed="8.60" length="9.08" width="4.00" shape="138.34,65.84 139.19,66.34 141.12,69.46 141.77,73.84"/>
    </edge>
    <edge id=":41_0" function="internal">
        <lane id=":41_0_0" index="0" disallow="tram rail_urban rail rail_electric pedestrian ship" speed="13.89" length="16.00" width="4.00" shape="57.47,116.83 41.47,116.81"/>
    </edge>
    <edge id=":41_1" function="internal">
        <lane id=":41_1_0" index="0" disallow="tram rail_urban rail rail_electric pedestrian ship" speed="8.64" length="6.98" width="4.00" shape="57.47,116.83 53.10,116.17 50.93,114.82"/>
    </edge>
    <edge id=":41_6" function="internal">
        <lane id=":41_6_0" index="0" disallow="tram rail_urban rail rail_electric pedestrian ship" speed="8.64" length="9.46" width="4.00" shape="50.93,114.82 49.98,114.23 48.10,110.98 47.48,106.44"/>
    </edge>
    <edge id=":41_2" function="internal">
        <lane id=":41_2_0" index="0" disallow="tram rail_urban rail rail_electric pedestrian ship" speed="6.89" length="9.99" width="4.00" shape="51.48,106.44 51.85,109.23 52.98,111.23 54.85,112.43 57.48,112.83"/>
    </edge>
    <edge id=":41_3" function="internal">
        <lane id=":41_3_0" index="0" disallow="tram rail_urban rail rail_electric pedestrian ship" speed="8.63" length="16.44" width="4.00" shape="51.48,106.44 50.85,110.98 48.98,114.22 45.85,116.17 41.47,116.81"/>
    </edge>
    <edge id=":41_4" function="internal">
        <lane id=":41_4_0" index="0" disallow="tram rail_urban rail rail_electric pedestrian ship" speed="6.89" length="9.98" width="4.00" shape="41.48,112.81 44.10,112.42 45.98,111.22 47.10,109.23 47.48,106.44"/>
    </edge>
    <edge id=":41_5" function="internal">
        <lane id=":41_5_0" index="0" disallow="tram rail_urban rail rail_electric pedestrian ship" speed="13.89" length="16.00" width="4.00" shape="41.48,112.81 57.48,112.83"/>
    </edge>
    <edge id=":48_0" function="internal">
        <lane id=":48_0_0" index="0" disallow="tram rail_urban rail rail_electric pedestrian ship" speed="6.78" length="9.64" width="4.00" shape="195.31,122.94 194.94,120.31 193.82,118.44 191.96,117.31 189.36,116.93"/>
    </edge>
    <edge id=":48_1" function="internal">
        <lane id=":48_1_0" index="0" disallow="tram rail_urban rail rail_electric pedestrian ship" speed="13.89" length="16.00" width="4.00" shape="195.31,122.94 195.31,106.94"/>
    </edge>
    <edge id=":48_2" function="internal">
        <lane id=":48_2_0" index="0" disallow="tram rail_urban rail rail_electric pedestrian ship" speed="13.89" length="16.00" width="4.00" shape="199.31,106.94 199.31,122.94"/>
    </edge>
    <edge id=":48_3" function="internal">
        <lane id=":48_3_0" index="0" disallow="tram rail_urban rail rail_electric pedestrian ship" speed="8.55" length="7.11" width="4.00" shape="199.31,106.94 198.69,111.31 197.31,113.62"/>
    </edge>
    <edge id=":48_6" function="internal">
        <lane id=":48_6_0" index="0" disallow="tram rail_urban rail rail_electric pedestrian ship" speed="8.55" length="8.98" width="4.00" shape="197.31,113.62 196.82,114.44 193.71,116.31 189.36,116.93"/>
    </edge>
    <edge id=":48_4" function="internal">
        <lane id=":48_4_0" index="0" disallow="tram rail_urban rail rail_electric pedestrian ship" speed="6.78" length="9.64" width="4.00" shape="189.36,112.93 191.97,112.56 193.83,111.44 194.94,109.56 195.31,106.94"/>
    </edge>
    <edge id=":48_5" function="internal">
        <lane id=":48_5_0" index="0" disallow="tram rail_urban rail rail_electric pedestrian ship" speed="8.55" length="16.09" width="4.00" shape="189.36,112.93 193.72,113.56 196.82,115.44 198.69,118.56 199.31,122.94"/>
    </edge>
    <edge id=":55_0" function="internal">
        <lane id=":55_0_0" index="0" disallow="tram rail_urban rail rail_electric pedestrian ship" speed="6.79" length="9.68" width="4.00" shape="47.43,8.06 47.06,5.44 45.93,3.56 44.06,2.44 41.43,2.07"/>
    </edge>
    <edge id=":55_1" function="internal">
        <lane id=":55_1_0" index="0" disallow="tram rail_urban rail rail_electric pedestrian ship" speed="8.59" length="16.26" width="4.00" shape="47.43,8.06 48.07,3.69 49.97,0.56 53.15,-1.31 57.60,-1.94"/>
    </edge>
    <edge id=":55_2" function="internal">
        <lane id=":55_2_0" index="0" disallow="tram rail_urban rail rail_electric pedestrian ship" speed="6.84" length="9.81" width="4.00" shape="57.60,2.06 54.90,2.43 52.97,3.56 51.82,5.44 51.43,8.06"/>
    </edge>
    <edge id=":55_3" function="internal">
        <lane id=":55_3_0" index="0" disallow="tram rail_urban rail rail_electric pedestrian ship" speed="13.89" length="16.17" width="4.00" shape="57.60,2.06 41.43,2.07"/>
    </edge>
    <edge id=":55_4" function="internal">
        <lane id=":55_4_0" index="0" disallow="tram rail_urban rail rail_electric pedestrian ship" speed="13.89" length="16.17" width="4.00" shape="41.43,-1.93 57.60,-1.94"/>
    </edge>
    <edge id=":55_5" function="internal">
        <lane id=":55_5_0" index="0" disallow="tram rail_urban rail rail_electric pedestrian ship" speed="8.56" length="7.09" width="4.00" shape="41.43,-1.93 45.81,-1.31 48.10,0.06"/>
    </edge>
    <edge id=":55_6" function="internal">
        <lane id=":55_6_0" index="0" disallow="tram rail_urban rail rail_electric pedestrian ship" speed="8.56" length="9.04" width="4.00" shape="48.10,0.06 48.93,0.56 50.81,3.69 51.43,8.06"/>
    </edge>
    <edge id=":62_0" function="internal">
        <lane id=":62_0_0" index="0" disallow="tram rail_urban rail rail_electric pedestrian ship" speed="13.89" length="15.91" width="4.00" shape="-1.92,122.69 -1.90,106.78"/>
    </edge>
    <edge id=":62_1" function="internal">
        <lane id=":62_1_0" index="0" disallow="tram rail_urban rail rail_electric pedestrian ship" speed="8.76" length="6.74" width="4.00" shape="-1.92,122.69 -1.22,118.36 0.08,116.41"/>
    </edge>
    <edge id=":62_6" function="internal">
        <lane id=":62_6_0" index="0" disallow="tram rail_urban rail rail_electric pedestrian ship" speed="8.76" length="10.21" width="4.00" shape="0.08,116.41 0.86,115.26 4.32,113.40 9.17,112.79"/>
    </edge>
    <edge id=":62_2" function="internal">
        <lane id=":62_2_0" index="0" disallow="tram rail_urban rail rail_electric pedestrian ship" speed="7.05" length="10.50" width="4.00" shape="9.17,116.79 6.07,117.15 3.85,118.26 2.52,120.11 2.08,122.70"/>
    </edge>
    <edge id=":62_3" function="internal">
        <lane id=":62_3_0" index="0" disallow="tram rail_urban rail rail_electric pedestrian ship" speed="8.77" length="17.01" width="4.00" shape="9.17,116.79 4.32,116.16 0.86,114.28 -1.22,111.16 -1.90,106.78"/>
    </edge>
    <edge id=":62_4" function="internal">
        <lane id=":62_4_0" index="0" disallow="tram rail_urban rail rail_electric pedestrian ship" speed="7.06" length="10.56" width="4.00" shape="2.10,106.79 2.54,109.41 3.86,111.28 6.07,112.41 9.17,112.79"/>
    </edge>
    <edge id=":62_5" function="internal">
        <lane id=":62_5_0" index="0" disallow="tram rail_urban rail rail_electric pedestrian ship" speed="13.89" length="15.91" width="4.00" shape="2.10,106.79 2.08,122.70"/>
    </edge>
    <edge id=":69_0" function="internal">
        <lane id=":69_0_0" index="0" disallow="tram rail_urban rail rail_electric pedestrian ship" speed="13.89" length="16.00" width="4.00" shape="147.87,116.90 131.87,116.89"/>
    </edge>
    <edge id=":69_1" function="internal">
        <lane id=":69_1_0" index="0" disallow="tram rail_urban rail rail_electric pedestrian ship" speed="6.81" length="9.70" width="4.00" shape="141.87,106.87 142.25,109.51 143.38,111.39 145.25,112.52 147.88,112.90"/>
    </edge>
    <edge id=":69_2" function="internal">
        <lane id=":69_2_0" index="0" disallow="tram rail_urban rail rail_electric pedestrian ship" speed="8.55" length="16.15" width="4.00" shape="141.87,106.87 141.25,111.26 139.38,114.39 136.26,116.26 131.87,116.89"/>
    </edge>
    <edge id=":69_3" function="internal">
        <lane id=":69_3_0" index="0" disallow="tram rail_urban rail rail_electric pedestrian ship" speed="13.89" length="16.00" width="4.00" shape="131.88,112.89 147.88,112.90"/>
    </edge>

    <edge id="-0.0.00" from="2.0" to="62" priority="1" type="driving" shape="0.21,10.08 0.21,12.01 0.21,13.93 0.20,15.86 0.20,17.78 0.20,19.71 0.20,21.63 0.19,23.56 0.19,25.49 0.19,27.41 0.19,29.34 0.19,31.26 0.18,33.19 0.18,35.11 0.18,37.04 0.18,38.96 0.17,40.89 0.17,42.82 0.17,44.74 0.17,46.67 0.17,48.59 0.16,50.52 0.16,52.44 0.16,54.37 0.16,56.30 0.15,58.22 0.15,60.15 0.15,62.07 0.15,64.00 0.14,65.92 0.14,67.85 0.14,69.78 0.14,71.70 0.14,73.63 0.13,75.55 0.13,77.48 0.13,79.40 0.13,81.33 0.12,83.25 0.12,85.18 0.12,87.11 0.12,89.03 0.11,90.96 0.11,92.88 0.11,94.81 0.11,96.73 0.11,98.66 0.10,100.29 0.10,101.91 0.10,103.54 0.10,105.16 0.10,106.79">
        <lane id="-0.0.00_0" index="0" disallow="tram rail_urban rail rail_electric pedestrian ship" speed="13.89" length="96.71" width="4.00" shape="2.21,10.08 2.21,12.01 2.21,13.93 2.20,15.86 2.20,17.78 2.20,19.71 2.20,21.64 2.19,23.56 2.19,25.49 2.19,27.41 2.19,29.34 2.19,31.26 2.18,33.19 2.18,35.12 2.18,37.04 2.18,38.97 2.17,40.89 2.17,42.82 2.17,44.74 2.17,46.67 2.17,48.60 2.16,50.52 2.16,52.45 2.16,54.37 2.16,56.30 2.15,58.22 2.15,60.15 2.15,62.07 2.15,64.00 2.14,65.93 2.14,67.85 2.14,69.78 2.14,71.70 2.14,73.63 2.13,75.55 2.13,77.48 2.13,79.41 2.13,81.33 2.12,83.26 2.12,85.18 2.12,87.11 2.12,89.03 2.11,90.96 2.11,92.89 2.11,94.81 2.11,96.74 2.11,98.66 2.10,100.29 2.10,101.91 2.10,103.54 2.10,105.16 2.10,106.79"/>
    </edge>
    <edge id="-1.0.00" from="62" to="16.1" priority="1" type="driving" shape="0.08,122.70 0.08,124.54 0.07,126.38 0.07,128.22 0.07,130.06 0.07,131.90 0.06,133.74 0.06,135.59 0.06,137.43 0.06,139.27 0.06,141.11 0.05,142.95 0.05,144.88 0.05,146.80 0.05,148.73 0.04,150.65 0.04,152.58 0.04,154.50 0.04,156.43 0.04,158.36 0.03,160.28 0.03,162.21 0.03,164.13 0.03,166.06 0.02,167.98 0.02,169.91 0.02,171.83 0.02,173.76 0.01,175.69 0.01,177.61 0.01,179.54 0.01,181.46 0.01,183.39 0.00,185.31 0.00,187.24">
        <lane id="-1.0.00_0" index="0" disallow="tram rail_urban rail rail_electric pedestrian ship" speed="13.89" length="64.39" width="4.00" shape="2.08,122.70 2.08,124.54 2.07,126.38 2.07,128.22 2.07,130.06 2.07,131.90 2.06,133.75 2.06,135.59 2.06,137.43 2.06,139.27 2.06,141.11 2.05,142.95 2.05,144.88 2.05,146.80 2.05,148.73 2.04,150.65 2.04,152.58 2.04,154.51 2.04,156.43 2.04,158.36 2.03,160.28 2.03,162.21 2.03,164.13 2.03,166.06 2.02,167.99 2.02,169.91 2.02,171.84 2.02,173.76 2.01,175.69 2.01,177.61 2.01,179.54 2.01,181.47 2.01,183.39 2.00,185.32 2.00,187.09"/>
    </edge>
    <edge id="-10.0.00" from="20" to="34" priority="1" type="driving" shape="189.20,65.67 147.59,65.81">
        <lane id="-10.0.00_0" index="0" disallow="tram rail_urban rail rail_electric pedestrian ship" speed="13.89" length="41.45" width="4.00" shape="189.21,67.67 147.76,67.81"/>
    </edge>
    <edge id="-11.0.00" from="34" to="27" priority="1" type="driving" shape="131.51,65.87 57.75,66.12">
        <lane id="-11.0.00_0" index="0" disallow="tram rail_urban rail rail_electric pedestrian ship" speed="13.89" length="73.77" width="4.00" shape="131.52,67.87 57.76,68.12"/>
    </edge>
    <edge id="-12.0.00" from="3.12" to="16.12" priority="1" type="driving" shape="187.39,197.34 185.47,197.34 183.55,197.34 181.63,197.34 179.71,197.34 177.79,197.34 175.88,197.34 173.96,197.34 172.04,197.34 170.12,197.34 168.20,197.35 166.28,197.35 164.36,197.35 162.44,197.35 160.52,197.35 158.60,197.35 156.68,197.35 154.76,197.35 152.84,197.35 150.93,197.35 149.01,197.35 147.09,197.35 145.17,197.35 143.25,197.35 141.33,197.35 139.41,197.35 137.49,197.35 135.57,197.35 133.65,197.36 131.73,197.36 129.81,197.36 127.89,197.36 125.98,197.36 124.06,197.36 122.14,197.36 120.22,197.36 118.30,197.36 116.38,197.36 114.46,197.36 112.54,197.36 110.62,197.36 108.70,197.36 106.78,197.36 104.86,197.36 102.94,197.36 101.03,197.36 99.11,197.37 97.19,197.37 95.27,197.37 93.35,197.37 91.43,197.37 89.51,197.37 87.59,197.37 85.67,197.37 83.75,197.37 81.83,197.37 79.91,197.37 77.99,197.37 76.08,197.37 74.16,197.37 72.24,197.37 70.32,197.37 68.40,197.37 66.48,197.37 64.56,197.37 62.64,197.38 60.72,197.38 58.80,197.38 56.88,197.38 54.96,197.38 53.04,197.38 51.12,197.38 49.21,197.38 47.29,197.38 45.37,197.38 43.45,197.38 41.53,197.38 39.61,197.38 37.69,197.38 35.77,197.38 33.85,197.38 31.93,197.38 30.01,197.38 28.09,197.39 26.17,197.39 24.26,197.39 22.34,197.39 20.42,197.39 18.50,197.39 16.58,197.39 14.66,197.39 12.74,197.39 10.82,197.39">
        <lane id="-12.0.00_0" index="0" disallow="tram rail_urban rail rail_electric pedestrian ship" speed="13.89" length="176.83" width="4.00" shape="187.25,199.34 185.47,199.34 183.55,199.34 181.63,199.34 179.71,199.34 177.80,199.34 175.88,199.34 173.96,199.34 172.04,199.34 170.12,199.34 168.20,199.35 166.28,199.35 164.36,199.35 162.44,199.35 160.52,199.35 158.60,199.35 156.68,199.35 154.76,199.35 152.85,199.35 150.93,199.35 149.01,199.35 147.09,199.35 145.17,199.35 143.25,199.35 141.33,199.35 139.41,199.35 137.49,199.35 135.57,199.35 133.65,199.36 131.73,199.36 129.81,199.36 127.89,199.36 125.98,199.36 124.06,199.36 122.14,199.36 120.22,199.36 118.30,199.36 116.38,199.36 114.46,199.36 112.54,199.36 110.62,199.36 108.70,199.36 106.78,199.36 104.86,199.36 102.94,199.36 101.03,199.36 99.11,199.37 97.19,199.37 95.27,199.37 93.35,199.37 91.43,199.37 89.51,199.37 87.59,199.37 85.67,199.37 83.75,199.37 81.83,199.37 79.91,199.37 77.99,199.37 76.08,199.37 74.16,199.37 72.24,199.37 70.32,199.37 68.40,199.37 66.48,199.37 64.56,199.37 62.64,199.38 60.72,199.38 58.80,199.38 56.88,199.38 54.96,199.38 53.04,199.38 51.13,199.38 49.21,199.38 47.29,199.38 45.37,199.38 43.45,199.38 41.53,199.38 39.61,199.38 37.69,199.38 35.77,199.38 33.85,199.38 31.93,199.38 30.01,199.38 28.09,199.39 26.18,199.39 24.26,199.39 22.34,199.39 20.42,199.39 18.50,199.39 16.58,199.39 14.66,199.39 12.74,199.39 10.42,199.39"/>
    </edge>
    <edge id="-13.0.00" from="17.13" to="20" priority="1" type="driving" shape="197.33,9.93 197.33,11.85 197.33,13.78 197.33,15.70 197.33,17.63 197.33,19.55 197.33,21.48 197.33,23.40 197.33,25.32 197.33,27.25 197.33,29.17 197.33,31.10 197.33,33.02 197.33,34.94 197.33,36.87 197.33,38.79 197.33,40.72 197.33,42.64 197.32,44.57 197.32,46.49 197.32,48.41 197.32,50.34 197.32,52.26 197.32,54.19 197.32,55.93 197.32,57.67">
        <lane id="-13.0.00_0" index="0" disallow="tram rail_urban rail rail_electric pedestrian ship" speed="13.89" length="47.59" width="4.00" shape="199.33,10.08 199.33,11.85 199.33,13.78 199.33,15.70 199.33,17.63 199.33,19.55 199.33,21.48 199.33,23.40 199.33,25.32 199.33,27.25 199.33,29.17 199.33,31.10 199.33,33.02 199.33,34.95 199.33,36.87 199.33,38.79 199.33,40.72 199.33,42.64 199.32,44.57 199.32,46.49 199.32,48.41 199.32,50.34 199.32,52.26 199.32,54.19 199.32,55.93 199.32,57.67"/>
    </edge>
    <edge id="-14.0.00" from="20" to="48" priority="1" type="driving" shape="197.32,73.52 197.32,75.44 197.32,77.36 197.32,79.28 197.32,81.19 197.32,83.11 197.32,85.03 197.32,86.94 197.32,88.86 197.32,90.78 197.32,92.69 197.32,94.61 197.32,96.53 197.32,98.44 197.32,100.29 197.32,102.13 197.31,103.97 197.31,105.81 197.31,107.66">
        <lane id="-14.0.00_0" index="0" disallow="tram rail_urban rail rail_electric pedestrian ship" speed="13.89" length="33.28" width="4.00" shape="199.32,73.66 199.32,75.44 199.32,77.36 199.32,79.28 199.32,81.19 199.32,83.11 199.32,85.03 199.32,86.94 199.32,88.86 199.32,90.78 199.32,92.69 199.32,94.61 199.32,96.53 199.32,98.45 199.32,100.29 199.32,102.13 199.31,103.97 199.31,105.81 199.31,106.94"/>
    </edge>
    <edge id="-15.0.00" from="48" to="3.15" priority="1" type="driving" shape="197.31,122.68 197.31,124.50 197.31,126.32 197.31,128.14 197.31,129.96 197.31,131.78 197.31,133.60 197.31,135.42 197.31,137.24 197.31,139.06 197.31,140.88 197.31,142.70 197.31,144.63 197.31,146.55 197.31,148.48 197.31,150.40 197.31,152.32 197.31,154.25 197.31,156.17 197.31,158.10 197.31,160.02 197.31,161.95 197.30,163.87 197.30,165.79 197.30,167.72 197.30,169.64 197.30,171.57 197.30,173.49 197.30,175.41 197.30,177.34 197.30,179.26 197.30,181.19 197.30,183.11 197.30,185.04 197.30,186.96">
        <lane id="-15.0.00_0" index="0" disallow="tram rail_urban rail rail_electric pedestrian ship" speed="13.89" length="63.87" width="4.00" shape="199.31,122.94 199.31,124.50 199.31,126.32 199.31,128.14 199.31,129.96 199.31,131.78 199.31,133.60 199.31,135.42 199.31,137.24 199.31,139.06 199.31,140.88 199.31,142.70 199.31,144.63 199.31,146.55 199.31,148.48 199.31,150.40 199.31,152.32 199.31,154.25 199.31,156.17 199.31,158.10 199.31,160.02 199.31,161.95 199.30,163.87 199.30,165.79 199.30,167.72 199.30,169.64 199.30,171.57 199.30,173.49 199.30,175.41 199.30,177.34 199.30,179.26 199.30,181.19 199.30,183.11 199.30,185.04 199.30,186.81"/>
    </edge>
    <edge id="-16.0.00" from="16.1" to="16.12" priority="1" type="driving" shape="0.00,187.24 0.00,187.92 0.23,189.91 0.92,191.78 2.03,193.44 3.50,194.79 3.60,194.86 4.24,195.31 5.97,196.31 7.85,197.00 9.81,197.35">
        <lane id="-16.0.00_0" index="0" disallow="tram rail_urban rail rail_electric pedestrian ship" speed="13.89" length="12.83" width="4.00" shape="2.00,187.43 2.00,187.81 2.19,189.44 2.72,190.86 3.56,192.13 4.84,193.31 4.75,193.22 5.32,193.62 6.82,194.49 8.37,195.06 10.16,195.38"/>
    </edge>
    <edge id="-17.0.00" from="17.13" to="19.17" priority="1" type="driving" shape="197.33,9.93 197.33,9.32 197.10,7.34 196.43,5.46 195.35,3.78 194.20,2.62 194.01,2.46 192.37,1.33 190.54,0.53 188.59,0.09">