<?xml version="1.0" encoding="UTF-8"?>

<!-- generated on Thu Sep  5 16:45:51 2019 by Eclipse SUMO polyconvert Version 1.2.0
<configuration xmlns:xsi="http://www.w3.org/2001/XMLSchema-instance" xsi:noNamespaceSchemaLocation="http://sumo.dlr.de/xsd/polyconvertConfiguration.xsd">

    <input>
        <net-file value="simulations/Town01/Town01.net.xml"/>
        <type-file value="simulations/typemap.xml"/>
    </input>

    <output>
        <output-file value="simulations/Town01/Town01.poly.xml"/>
    </output>

</configuration>
-->

<additional xmlns:xsi="http://www.w3.org/2001/XMLSchema-instance" xsi:noNamespaceSchemaLocation="http://sumo.dlr.de/xsd/additional_file.xsd">
</additional>
