<?xml version="1.0" encoding="UTF-8"?>

<!-- generated on Thu Sep  5 16:45:51 2019 by Eclipse SUMO netconvert Version 1.2.0
<configuration xmlns:xsi="http://www.w3.org/2001/XMLSchema-instance" xsi:noNamespaceSchemaLocation="http://sumo.dlr.de/xsd/netconvertConfiguration.xsd">

    <input>
        <opendrive-files value="simulations/Town01/Town01.xodr"/>
    </input>

    <output>
        <output-file value="simulations/Town01/Town01.net.xml"/>
    </output>

    <tls_building>
        <tls.left-green.time value="0"/>
    </tls_building>

    <junctions>
        <rectangular-lane-cut value="true"/>
    </junctions>

</configuration>
-->

<net version="1.1" junctionCornerDetail="5" rectangularLaneCut="true" limitTurnSpeed="5.50" xmlns:xsi="http://www.w3.org/2001/XMLSchema-instance" xsi:noNamespaceSchemaLocation="http://sumo.dlr.de/xsd/net_file.xsd">

    <location netOffset="0.71,328.49" convBoundary="0.00,0.00,395.17,328.87" origBoundary="-0.71,-328.49,394.46,0.38" projParameter="!"/>

    <type id="bidirectional" priority="1" speed="1.39" disallow="tram rail_urban rail rail_electric pedestrian ship" width="3.65"/>
    <type id="border" priority="0" speed="1.39" disallow="all" discard="1" width="0.10"/>
    <type id="driving" priority="1" speed="13.89" disallow="tram rail_urban rail rail_electric pedestrian ship" width="3.65"/>
    <type id="entry" priority="1" speed="22.22" disallow="tram rail_urban rail rail_electric pedestrian ship" width="3.65"/>
    <type id="exit" priority="1" speed="22.22" disallow="tram rail_urban rail rail_electric pedestrian ship" width="3.65"/>
    <type id="median" priority="0" speed="1.39" disallow="all" discard="1" width="0.10"/>
    <type id="mwyEntry" priority="1" speed="22.22" allow="private emergency authority army vip passenger hov taxi bus coach delivery truck trailer motorcycle evehicle custom1 custom2" width="3.65"/>
    <type id="mwyExit" priority="1" speed="22.22" allow="private emergency authority army vip passenger hov taxi bus coach delivery truck trailer motorcycle evehicle custom1 custom2" width="3.65"/>
    <type id="none" priority="0" speed="1.39" disallow="all" discard="1" width="1.00"/>
    <type id="offRamp" priority="1" speed="22.22" allow="private emergency authority army vip passenger hov taxi bus coach delivery truck trailer motorcycle evehicle custom1 custom2" width="3.65"/>
    <type id="onRamp" priority="1" speed="22.22" allow="private emergency authority army vip passenger hov taxi bus coach delivery truck trailer motorcycle evehicle custom1 custom2" width="3.65"/>
    <type id="parking" priority="1" speed="1.39" disallow="tram rail_urban rail rail_electric pedestrian ship" width="2.50"/>
    <type id="rail" priority="3" speed="33.33" allow="rail_urban rail rail_electric" width="3.65"/>
    <type id="restricted" priority="0" speed="13.89" disallow="all" width="3.65"/>
    <type id="roadWorks" priority="0" speed="1.39" allow="authority" width="3.65"/>
    <type id="shoulder" priority="0" speed="1.39" disallow="all" discard="1" width="1.00"/>
    <type id="special1" priority="1" speed="22.22" allow="custom1" discard="1" width="3.65"/>
    <type id="special2" priority="1" speed="22.22" allow="custom2" discard="1" width="3.65"/>
    <type id="special3" priority="1" speed="22.22" allow="custom1 custom2" discard="1" width="3.65"/>
    <type id="stop" priority="1" speed="13.89" disallow="tram rail_urban rail rail_electric pedestrian ship" width="3.65"/>
    <type id="tram" priority="2" speed="13.89" allow="tram" width="3.65"/>

    <edge id=":103_0" function="internal">
        <lane id=":103_0_0" index="0" disallow="tram rail_urban rail rail_electric pedestrian ship" speed="6.79" length="9.68" width="4.00" shape="335.38,204.89 335.00,202.27 333.88,200.39 332.00,199.27 329.37,198.91"/>
    </edge>
    <edge id=":103_1" function="internal">
        <lane id=":103_1_0" index="0" disallow="tram rail_urban rail rail_electric pedestrian ship" speed="13.89" length="16.00" width="4.00" shape="335.38,204.89 335.38,188.89"/>
    </edge>
    <edge id=":103_2" function="internal">
        <lane id=":103_2_0" index="0" disallow="tram rail_urban rail rail_electric pedestrian ship" speed="13.89" length="16.00" width="4.00" shape="339.38,188.90 339.38,204.90"/>
    </edge>
    <edge id=":103_3" function="internal">
        <lane id=":103_3_0" index="0" disallow="tram rail_urban rail rail_electric pedestrian ship" speed="8.57" length="7.08" width="4.00" shape="339.38,188.90 338.76,193.26 337.38,195.55"/>
    </edge>
    <edge id=":103_6" function="internal">
        <lane id=":103_6_0" index="0" disallow="tram rail_urban rail rail_electric pedestrian ship" speed="8.57" length="9.05" width="4.00" shape="337.38,195.55 336.88,196.39 333.75,198.27 329.37,198.91"/>
    </edge>
    <edge id=":103_4" function="internal">
        <lane id=":103_4_0" index="0" disallow="tram rail_urban rail rail_electric pedestrian ship" speed="6.81" length="9.70" width="4.00" shape="329.36,194.91 331.99,194.52 333.88,193.39 335.01,191.52 335.38,188.89"/>
    </edge>
    <edge id=":103_5" function="internal">
        <lane id=":103_5_0" index="0" disallow="tram rail_urban rail rail_electric pedestrian ship" speed="8.55" length="16.15" width="4.00" shape="329.36,194.91 333.74,195.52 336.88,197.39 338.75,200.51 339.38,204.90"/>
    </edge>
    <edge id=":11.0_0" function="internal">
        <lane id=":11.0_0_0" index="0" disallow="tram rail_urban rail rail_electric pedestrian ship" speed="13.89" length="0.32" width="4.00" shape="384.99,330.68 384.66,330.68"/>
    </edge>
    <edge id=":11.0_1" function="internal">
        <lane id=":11.0_1_0" index="0" disallow="tram rail_urban rail rail_electric pedestrian ship" speed="13.89" length="0.32" width="4.00" shape="384.66,326.68 384.98,326.68"/>
    </edge>
    <edge id=":15.13_0" function="internal">
        <lane id=":15.13_0_0" index="0" disallow="tram rail_urban rail rail_electric pedestrian ship" speed="13.89" length="0.10" width="4.00" shape="2.00,318.03 2.00,318.03"/>
    </edge>
    <edge id=":15.13_1" function="internal">
        <lane id=":15.13_1_0" index="0" disallow="tram rail_urban rail rail_electric pedestrian ship" speed="13.89" length="0.10" width="4.00" shape="-2.00,318.03 -2.00,318.03"/>
    </edge>
    <edge id=":20.15_0" function="internal">
        <lane id=":20.15_0_0" index="0" disallow="tram rail_urban rail rail_electric pedestrian ship" speed="13.89" length="0.10" width="4.00" shape="2.62,10.06 2.62,10.06"/>
    </edge>
    <edge id=":20.15_1" function="internal">
        <lane id=":20.15_1_0" index="0" disallow="tram rail_urban rail rail_electric pedestrian ship" speed="13.89" length="0.10" width="4.00" shape="-1.38,10.06 -1.38,10.06"/>
    </edge>
    <edge id=":26_0" function="internal">
        <lane id=":26_0_0" index="0" disallow="tram rail_urban rail rail_electric pedestrian ship" speed="6.91" length="10.06" width="4.00" shape="154.71,279.45 154.32,276.75 153.14,274.82 151.17,273.66 148.41,273.28"/>
    </edge>
    <edge id=":26_1" function="internal">
        <lane id=":26_1_0" index="0" disallow="tram rail_urban rail rail_electric pedestrian ship" speed="8.75" length="16.88" width="4.00" shape="154.71,279.45 155.39,275.00 157.41,271.81 160.77,269.90 165.47,269.26"/>
    </edge>
    <edge id=":26_2" function="internal">
        <lane id=":26_2_0" index="0" disallow="tram rail_urban rail rail_electric pedestrian ship" speed="7.03" length="10.44" width="4.00" shape="165.47,273.26 162.52,273.65 160.41,274.81 159.14,276.75 158.71,279.45"/>
    </edge>
    <edge id=":26_3" function="internal">
        <lane id=":26_3_0" index="0" disallow="tram rail_urban rail rail_electric pedestrian ship" speed="13.89" length="17.06" width="4.00" shape="148.40,269.28 165.47,269.26"/>
    </edge>
    <edge id=":26_4" function="internal">
        <lane id=":26_4_0" index="0" disallow="tram rail_urban rail rail_electric pedestrian ship" speed="8.65" length="11.86" width="4.00" shape="148.40,269.28 152.92,269.91 156.14,271.82 157.99,274.86"/>
    </edge>
    <edge id=":26_5" function="internal">
        <lane id=":26_5_0" index="0" disallow="tram rail_urban rail rail_electric pedestrian ship" speed="8.65" length="4.67" width="4.00" shape="157.99,274.86 158.07,275.00 158.71,279.45"/>
    </edge>
    <edge id=":3.13_0" function="internal">
        <lane id=":3.13_0_0" index="0" disallow="tram rail_urban rail rail_electric pedestrian ship" speed="13.89" length="0.10" width="4.00" shape="10.16,330.87 10.16,330.87"/>
    </edge>
    <edge id=":3.13_1" function="internal">
        <lane id=":3.13_1_0" index="0" disallow="tram rail_urban rail rail_electric pedestrian ship" speed="13.89" length="0.10" width="4.00" shape="10.16,326.87 10.16,326.87"/>
    </edge>
    <edge id=":33_0" function="internal">
        <lane id=":33_0_0" index="0" disallow="tram rail_urban rail rail_electric pedestrian ship" speed="7.38" length="11.66" width="4.00" shape="335.35,280.29 334.90,277.13 333.54,274.87 331.28,273.52 328.11,273.07"/>
    </edge>
    <edge id=":33_1" function="internal">
        <lane id=":33_1_0" index="0" disallow="tram rail_urban rail rail_electric pedestrian ship" speed="13.89" length="17.83" width="4.00" shape="335.35,280.29 335.36,262.46"/>
    </edge>
    <edge id=":33_2" function="internal">
        <lane id=":33_2_0" index="0" disallow="tram rail_urban rail rail_electric pedestrian ship" speed="13.89" length="17.83" width="4.00" shape="339.36,262.46 339.35,280.29"/>
    </edge>
    <edge id=":33_3" function="internal">
        <lane id=":33_3_0" index="0" disallow="tram rail_urban rail rail_electric pedestrian ship" speed="8.92" length="7.11" width="4.00" shape="339.36,262.46 338.65,267.10 337.35,269.14"/>
    </edge>
    <edge id=":33_6" function="internal">
        <lane id=":33_6_0" index="0" disallow="tram rail_urban rail rail_electric pedestrian ship" speed="8.92" length="10.52" width="4.00" shape="337.35,269.14 336.54,270.41 333.03,272.40 328.11,273.07"/>
    </edge>
    <edge id=":33_4" function="internal">
        <lane id=":33_4_0" index="0" disallow="tram rail_urban rail rail_electric pedestrian ship" speed="7.25" length="11.18" width="4.00" shape="328.10,269.07 331.28,268.65 333.54,267.41 334.90,265.35 335.36,262.46"/>
    </edge>
    <edge id=":33_5" function="internal">
        <lane id=":33_5_0" index="0" disallow="tram rail_urban rail rail_electric pedestrian ship" speed="9.03" length="18.12" width="4.00" shape="328.10,269.07 333.03,269.77 336.54,271.87 338.65,275.38 339.35,280.29"/>
    </edge>
    <edge id=":40_0" function="internal">
        <lane id=":40_0_0" index="0" disallow="tram rail_urban rail rail_electric pedestrian ship" speed="13.89" length="17.36" width="4.00" shape="165.15,330.79 147.79,330.80"/>
    </edge>
    <edge id=":40_1" function="internal">
        <lane id=":40_1_0" index="0" disallow="tram rail_urban rail rail_electric pedestrian ship" speed="8.79" length="7.19" width="4.00" shape="165.15,330.79 160.56,330.13 158.38,328.80"/>
    </edge>
    <edge id=":40_6" function="internal">
        <lane id=":40_6_0" index="0" disallow="tram rail_urban rail rail_electric pedestrian ship" speed="8.79" length="9.90" width="4.00" shape="158.38,328.80 157.28,328.12 155.31,324.78 154.66,320.09"/>
    </edge>
    <edge id=":40_2" function="internal">
        <lane id=":40_2_0" index="0" disallow="tram rail_urban rail rail_electric pedestrian ship" speed="7.08" length="10.64" width="4.00" shape="158.66,320.10 159.07,323.03 160.28,325.12 162.31,326.37 165.15,326.79"/>
    </edge>
    <edge id=":40_3" function="internal">
        <lane id=":40_3_0" index="0" disallow="tram rail_urban rail rail_electric pedestrian ship" speed="8.87" length="17.39" width="4.00" shape="158.66,320.10 157.98,324.78 155.94,328.12 152.54,330.13 147.79,330.80"/>
    </edge>
    <edge id=":40_4" function="internal">
        <lane id=":40_4_0" index="0" disallow="tram rail_urban rail rail_electric pedestrian ship" speed="7.18" length="10.95" width="4.00" shape="147.79,326.80 150.79,326.38 152.94,325.12 154.23,323.03 154.66,320.09"/>
    </edge>
    <edge id=":40_5" function="internal">
        <lane id=":40_5_0" index="0" disallow="tram rail_urban rail rail_electric pedestrian ship" speed="13.89" length="17.36" width="4.00" shape="147.79,326.80 165.15,326.79"/>
    </edge>
    <edge id=":47_0" function="internal">
        <lane id=":47_0_0" index="0" disallow="tram rail_urban rail rail_electric pedestrian ship" speed="13.89" length="16.82" width="4.00" shape="345.44,330.70 328.63,330.71"/>
    </edge>
    <edge id=":47_1" function="internal">
        <lane id=":47_1_0" index="0" disallow="tram rail_urban rail rail_electric pedestrian ship" speed="8.67" length="7.01" width="4.00" shape="345.44,330.70 341.02,330.05 338.86,328.70"/>
    </edge>
    <edge id=":47_6" function="internal">
        <lane id=":47_6_0" index="0" disallow="tram rail_urban rail rail_electric pedestrian ship" speed="8.67" length="9.60" width="4.00" shape="338.86,328.70 337.86,328.08 335.97,324.80 335.34,320.21"/>
    </edge>
    <edge id=":47_2" function="internal">
        <lane id=":47_2_0" index="0" disallow="tram rail_urban rail rail_electric pedestrian ship" speed="6.94" length="10.16" width="4.00" shape="339.34,320.21 339.72,323.05 340.86,325.08 342.77,326.30 345.44,326.70"/>
    </edge>
    <edge id=":47_3" function="internal">
        <lane id=":47_3_0" index="0" disallow="tram rail_urban rail rail_electric pedestrian ship" speed="8.80" length="17.10" width="4.00" shape="339.34,320.21 338.67,324.80 336.66,328.08 333.31,330.05 328.63,330.71"/>
    </edge>
    <edge id=":47_4" function="internal">
        <lane id=":47_4_0" index="0" disallow="tram rail_urban rail rail_electric pedestrian ship" speed="7.09" length="10.65" width="4.00" shape="328.62,326.71 331.56,326.30 333.66,325.08 334.92,323.05 335.34,320.21"/>
    </edge>
    <edge id=":47_5" function="internal">
        <lane id=":47_5_0" index="0" disallow="tram rail_urban rail rail_electric pedestrian ship" speed="13.89" length="16.82" width="4.00" shape="328.62,326.71 345.44,326.70"/>
    </edge>
    <edge id=":5.20_0" function="internal">
        <lane id=":5.20_0_0" index="0" disallow="tram rail_urban rail rail_electric pedestrian ship" speed="13.89" length="0.10" width="4.00" shape="10.43,2.23 10.43,2.23"/>
    </edge>
    <edge id=":5.20_1" function="internal">
        <lane id=":5.20_1_0" index="0" disallow="tram rail_urban rail rail_electric pedestrian ship" speed="13.89" length="0.10" width="4.00" shape="10.43,-1.77 10.43,-1.77"/>
    </edge>
    <edge id=":54_0" function="internal">
        <lane id=":54_0_0" index="0" disallow="tram rail_urban rail rail_electric pedestrian ship" speed="13.89" length="17.01" width="4.00" shape="99.38,330.83 82.36,330.83"/>
    </edge>
    <edge id=":54_1" function="internal">
        <lane id=":54_1_0" index="0" disallow="tram rail_urban rail rail_electric pedestrian ship" speed="9.16" length="6.58" width="4.00" shape="99.38,330.83 94.87,330.03 93.26,328.83"/>
    </edge>
    <edge id=":54_6" function="internal">
        <lane id=":54_6_0" index="0" disallow="tram rail_urban rail rail_electric pedestrian ship" speed="9.16" length="12.07" width="4.00" shape="93.26,328.83 91.66,327.63 89.73,323.64 89.08,318.05"/>
    </edge>
    <edge id=":54_2" function="internal">
        <lane id=":54_2_0" index="0" disallow="tram rail_urban rail rail_electric pedestrian ship" speed="7.54" length="12.22" width="4.00" shape="93.08,318.05 93.48,321.89 94.66,324.63 96.62,326.28 99.38,326.83"/>
    </edge>
    <edge id=":54_3" function="internal">
        <lane id=":54_3_0" index="0" disallow="tram rail_urban rail rail_electric pedestrian ship" speed="9.24" length="18.98" width="4.00" shape="93.08,318.05 92.41,323.64 90.40,327.63 87.05,330.03 82.36,330.83"/>
    </edge>
    <edge id=":54_4" function="internal">
        <lane id=":54_4_0" index="0" disallow="tram rail_urban rail rail_electric pedestrian ship" speed="7.63" length="12.55" width="4.00" shape="82.36,326.83 85.30,326.28 87.40,324.64 88.66,321.89 89.08,318.05"/>
    </edge>
    <edge id=":54_5" function="internal">
        <lane id=":54_5_0" index="0" disallow="tram rail_urban rail rail_electric pedestrian ship" speed="13.89" length="17.01" width="4.00" shape="82.36,326.83 99.38,326.83"/>
    </edge>
    <edge id=":61_0" function="internal">
        <lane id=":61_0_0" index="0" disallow="tram rail_urban rail rail_electric pedestrian ship" speed="6.79" length="9.68" width="4.00" shape="335.45,8.03 335.08,5.41 333.95,3.53 332.08,2.41 329.45,2.03"/>
    </edge>
    <edge id=":61_1" function="internal">
        <lane id=":61_1_0" index="0" disallow="tram rail_urban rail rail_electric pedestrian ship" speed="8.56" length="16.13" width="4.00" shape="335.45,8.03 336.08,3.66 337.95,0.53 341.07,-1.35 345.45,-1.98"/>
    </edge>
    <edge id=":61_2" function="internal">
        <lane id=":61_2_0" index="0" disallow="tram rail_urban rail rail_electric pedestrian ship" speed="13.89" length="16.00" width="4.00" shape="345.45,2.02 329.45,2.03"/>
    </edge>
    <edge id=":61_3" function="internal">
        <lane id=":61_3_0" index="0" disallow="tram rail_urban rail rail_electric pedestrian ship" speed="13.89" length="16.00" width="4.00" shape="329.45,-1.97 345.45,-1.98"/>
    </edge>
    <edge id=":61_4" function="internal">
        <lane id=":61_4_0" index="0" disallow="tram rail_urban rail rail_electric pedestrian ship" speed="8.56" length="7.09" width="4.00" shape="329.45,-1.97 333.82,-1.34 336.12,0.03"/>
    </edge>
    <edge id=":61_5" function="internal">
        <lane id=":61_5_0" index="0" disallow="tram rail_urban rail rail_electric pedestrian ship" speed="8.56" length="9.04" width="4.00" shape="336.12,0.03 336.95,0.53 338.83,3.66 339.45,8.03"/>
    </edge>
    <edge id=":68_0" function="internal">
        <lane id=":68_0_0" index="0" disallow="tram rail_urban rail rail_electric pedestrian ship" speed="13.89" length="18.81" width="4.00" shape="89.10,206.18 89.10,187.37"/>
    </edge>
    <edge id=":68_1" function="internal">
        <lane id=":68_1_0" index="0" disallow="tram rail_urban rail rail_electric pedestrian ship" speed="8.91" length="7.05" width="4.00" shape="89.10,206.18 89.80,201.59 91.10,199.56"/>
    </edge>
    <edge id=":68_6" function="internal">
        <lane id=":68_6_0" index="0" disallow="tram rail_urban rail rail_electric pedestrian ship" speed="8.91" length="10.47" width="4.00" shape="91.10,199.56 91.91,198.30 95.42,196.33 100.33,195.66"/>
    </edge>
    <edge id=":68_2" function="internal">
        <lane id=":68_2_0" index="0" disallow="tram rail_urban rail rail_electric pedestrian ship" speed="7.23" length="11.09" width="4.00" shape="100.34,199.66 97.17,200.07 94.91,201.30 93.55,203.33 93.10,206.18"/>
    </edge>
    <edge id=":68_3" function="internal">
        <lane id=":68_3_0" index="0" disallow="tram rail_urban rail rail_electric pedestrian ship" speed="9.22" length="18.99" width="4.00" shape="100.34,199.66 95.42,198.90 91.91,196.60 89.81,192.76 89.10,187.37"/>
    </edge>
    <edge id=":68_4" function="internal">
        <lane id=":68_4_0" index="0" disallow="tram rail_urban rail rail_electric pedestrian ship" speed="7.62" length="12.53" width="4.00" shape="93.10,187.37 93.56,191.00 94.91,193.60 97.17,195.15 100.33,195.66"/>
    </edge>
    <edge id=":68_5" function="internal">
        <lane id=":68_5_0" index="0" disallow="tram rail_urban rail rail_electric pedestrian ship" speed="13.89" length="18.81" width="4.00" shape="93.10,187.37 93.10,206.18"/>
    </edge>
    <edge id=":7.14_0" function="internal">
        <lane id=":7.14_0_0" index="0" disallow="tram rail_urban rail rail_electric pedestrian ship" speed="13.89" length="0.33" width="4.00" shape="385.03,2.00 384.70,2.00"/>
    </edge>
    <edge id=":7.14_1" function="internal">
        <lane id=":7.14_1_0" index="0" disallow="tram rail_urban rail rail_electric pedestrian ship" speed="13.89" length="0.33" width="4.00" shape="384.70,-2.00 385.03,-2.00"/>
    </edge>
    <edge id=":75_0" function="internal">
        <lane id=":75_0_0" index="0" disallow="tram rail_urban rail rail_electric pedestrian ship" speed="7.33" length="11.49" width="4.00" shape="89.13,8.71 88.65,5.86 87.21,3.82 84.80,2.59 81.43,2.19"/>
    </edge>
    <edge id=":75_1" function="internal">
        <lane id=":75_1_0" index="0" disallow="tram rail_urban rail rail_electric pedestrian ship" speed="8.91" length="17.57" width="4.00" shape="89.13,8.71 89.84,4.11 91.94,0.81 95.46,-1.16 100.38,-1.82"/>
    </edge>
    <edge id=":75_2" function="internal">
        <lane id=":75_2_0" index="0" disallow="tram rail_urban rail rail_electric pedestrian ship" speed="7.23" length="11.13" width="4.00" shape="100.38,2.18 97.21,2.59 94.94,3.81 93.59,5.86 93.13,8.72"/>
    </edge>
    <edge id=":75_3" function="internal">
        <lane id=":75_3_0" index="0" disallow="tram rail_urban rail rail_electric pedestrian ship" speed="13.89" length="18.96" width="4.00" shape="100.38,2.18 81.43,2.19"/>
    </edge>
    <edge id=":75_4" function="internal">
        <lane id=":75_4_0" index="0" disallow="tram rail_urban rail rail_electric pedestrian ship" speed="13.89" length="18.96" width="4.00" shape="81.42,-1.81 100.38,-1.82"/>
    </edge>
    <edge id=":75_5" function="internal">
        <lane id=":75_5_0" index="0" disallow="tram rail_urban rail rail_electric pedestrian ship" speed="8.99" length="7.99" width="4.00" shape="81.42,-1.81 86.55,-1.16 89.03,0.18"/>
    </edge>
    <edge id=":75_6" function="internal">
        <lane id=":75_6_0" index="0" disallow="tram rail_urban rail rail_electric pedestrian ship" speed="8.99" length="9.96" width="4.00" shape="89.03,0.18 90.21,0.82 92.40,4.11 93.13,8.72"/>
    </edge>
    <edge id=":8.11_0" function="internal">
        <lane id=":8.11_0_0" index="0" disallow="tram rail_urban rail rail_electric pedestrian ship" speed="13.89" length="0.33" width="4.00" shape="392.94,318.82 392.94,318.49"/>
    </edge>
    <edge id=":8.11_1" function="internal">
        <lane id=":8.11_1_0" index="0" disallow="tram rail_urban rail rail_electric pedestrian ship" speed="13.89" length="0.33" width="4.00" shape="396.94,318.49 396.94,318.82"/>
    </edge>
    <edge id=":8.14_0" function="internal">
        <lane id=":8.14_0_0" index="0" disallow="tram rail_urban rail rail_electric pedestrian ship" speed="13.89" length="0.10" width="4.00" shape="393.17,10.02 393.17,10.02"/>
    </edge>
    <edge id=":8.14_1" function="internal">
        <lane id=":8.14_1_0" index="0" disallow="tram rail_urban rail rail_electric pedestrian ship" speed="13.89" length="0.10" width="4.00" shape="397.17,10.02 397.17,10.02"/>
    </edge>
    <edge id=":82_0" function="internal">
        <lane id=":82_0_0" index="0" disallow="tram rail_urban rail rail_electric pedestrian ship" speed="13.89" length="15.95" width="4.00" shape="89.11,139.10 89.11,123.15"/>
    </edge>
    <edge id=":82_1" function="internal">
        <lane id=":82_1_0" index="0" disallow="tram rail_urban rail rail_electric pedestrian ship" speed="8.69" length="6.84" width="4.00" shape="89.11,139.10 89.79,134.74 91.11,132.70"/>
    </edge>
    <edge id=":82_6" function="internal">
        <lane id=":82_6_0" index="0" disallow="tram rail_urban rail rail_electric pedestrian ship" speed="8.69" length="9.87" width="4.00" shape="91.11,132.70 91.81,131.63 95.17,129.77 99.89,129.17"/>
    </edge>
    <edge id=":82_2" function="internal">
        <lane id=":82_2_0" index="0" disallow="tram rail_urban rail rail_electric pedestrian ship" speed="6.96" length="10.25" width="4.00" shape="99.88,133.17 96.92,133.53 94.80,134.64 93.53,136.49 93.11,139.10"/>
    </edge>
    <edge id=":82_3" function="internal">
        <lane id=":82_3_0" index="0" disallow="tram rail_urban rail rail_electric pedestrian ship" speed="8.72" length="16.75" width="4.00" shape="99.88,133.17 95.17,132.53 91.80,130.65 89.79,127.52 89.11,123.15"/>
    </edge>
    <edge id=":82_4" function="internal">
        <lane id=":82_4_0" index="0" disallow="tram rail_urban rail rail_electric pedestrian ship" speed="6.99" length="10.31" width="4.00" shape="93.11,123.15 93.54,125.77 94.81,127.65 96.92,128.78 99.89,129.17"/>
    </edge>
    <edge id=":82_5" function="internal">
        <lane id=":82_5_0" index="0" disallow="tram rail_urban rail rail_electric pedestrian ship" speed="13.89" length="15.95" width="4.00" shape="93.11,123.15 93.11,139.10"/>
    </edge>
    <edge id=":89_0" function="internal">
        <lane id=":89_0_0" index="0" disallow="tram rail_urban rail rail_electric pedestrian ship" speed="13.89" length="17.03" width="4.00" shape="89.09,280.06 89.09,263.03"/>
    </edge>
    <edge id=":89_1" function="internal">
        <lane id=":89_1_0" index="0" disallow="tram rail_urban rail rail_electric pedestrian ship" speed="9.07" length="12.65" width="4.00" shape="89.09,280.06 89.83,275.38 92.07,272.03 95.48,270.18"/>
    </edge>
    <edge id=":89_5" function="internal">
        <lane id=":89_5_0" index="0" disallow="tram rail_urban rail rail_electric pedestrian ship" speed="9.07" length="5.60" width="4.00" shape="95.48,270.18 95.78,270.01 100.99,269.34"/>
    </edge>
    <edge id=":89_2" function="internal">
        <lane id=":89_2_0" index="0" disallow="tram rail_urban rail rail_electric pedestrian ship" speed="7.43" length="11.81" width="4.00" shape="100.99,273.34 97.54,273.76 95.07,275.02 93.58,277.13 93.09,280.07"/>
    </edge>
    <edge id=":89_3" function="internal">
        <lane id=":89_3_0" index="0" disallow="tram rail_urban rail rail_electric pedestrian ship" speed="8.99" length="17.93" width="4.00" shape="100.99,273.34 95.79,272.70 92.07,270.77 89.84,267.55 89.09,263.03"/>
    </edge>
    <edge id=":89_4" function="internal">
        <lane id=":89_4_0" index="0" disallow="tram rail_urban rail rail_electric pedestrian ship" speed="7.33" length="11.48" width="4.00" shape="93.09,263.04 93.59,265.80 95.07,267.77 97.53,268.95 100.99,269.34"/>
    </edge>
    <edge id=":96_0" function="internal">
        <lane id=":96_0_0" index="0" disallow="tram rail_urban rail rail_electric pedestrian ship" speed="6.80" length="9.69" width="4.00" shape="335.40,139.85 335.03,137.23 333.90,135.35 332.02,134.22 329.39,133.84"/>
    </edge>
    <edge id=":96_1" function="internal">
        <lane id=":96_1_0" index="0" disallow="tram rail_urban rail rail_electric pedestrian ship" speed="13.89" length="16.00" width="4.00" shape="335.40,139.85 335.41,123.85"/>
    </edge>
    <edge id=":96_2" function="internal">
        <lane id=":96_2_0" index="0" disallow="tram rail_urban rail rail_electric pedestrian ship" speed="13.89" length="16.00" width="4.00" shape="339.41,123.85 339.40,139.85"/>
    </edge>
    <edge id=":96_3" function="internal">
        <lane id=":96_3_0" index="0" disallow="tram rail_urban rail rail_electric pedestrian ship" speed="8.55" length="7.09" width="4.00" shape="339.41,123.85 338.78,128.23 337.41,130.52"/>
    </edge>
    <edge id=":96_6" function="internal">
        <lane id=":96_6_0" index="0" disallow="tram rail_urban rail rail_electric pedestrian ship" speed="8.55" length="9.05" width="4.00" shape="337.41,130.52 336.90,131.36 333.77,133.22 329.39,133.84"/>
    </edge>
    <edge id=":96_4" function="internal">
        <lane id=":96_4_0" index="0" disallow="tram rail_urban rail rail_electric pedestrian ship" speed="6.79" length="9.68" width="4.00" shape="329.40,129.84 332.03,129.47 333.90,128.35 335.03,126.48 335.41,123.85"/>
    </edge>
    <edge id=":96_5" function="internal">
        <lane id=":96_5_0" index="0" disallow="tram rail_urban rail rail_electric pedestrian ship" speed="8.57" length="16.13" width="4.00" shape="329.40,129.84 333.78,130.47 336.90,132.36 338.78,135.48 339.40,139.85"/>
    </edge>

    <edge id="-0.0.00" from="11.0" to="47" priority="1" type="driving" shape="384.81,328.68 345.44,328.70">
        <lane id="-0.0.00_0" index="0" disallow="tram rail_urban rail rail_electric pedestrian ship" speed="13.89" length="39.22" width="4.00" shape="384.66,330.68 345.44,330.70"/>
    </edge>
    <edge id="-1.0.00" from="47" to="40" priority="1" type="driving" shape="328.62,328.71 326.65,328.71 324.68,328.71 322.71,328.71 320.73,328.71 318.76,328.71 316.79,328.71 314.82,328.72 312.85,328.72 310.87,328.72 308.90,328.72 306.93,328.72 304.96,328.72 302.98,328.72 301.01,328.72 299.04,328.72 297.07,328.72 295.09,328.73 293.12,328.73 291.15,328.73 289.16,328.73 287.16,328.73 285.17,328.73 283.18,328.73 281.19,328.73 279.19,328.73 277.20,328.73 275.21,328.74 273.21,328.74 271.22,328.74 269.23,328.74 267.24,328.74 265.24,328.74 263.25,328.74 261.26,328.74 259.27,328.74 257.27,328.75 255.28,328.75 253.29,328.75 251.29,328.75 249.30,328.75 247.31,328.75 245.32,328.75 243.32,328.75 241.33,328.75 239.34,328.75 237.34,328.76 235.35,328.76 233.36,328.76 231.37,328.76 229.37,328.76 227.38,328.76 225.39,328.76 223.39,328.76 221.40,328.76 219.41,328.76 217.42,328.77 215.42,328.77 213.43,328.77 211.44,328.77 209.44,328.77 207.45,328.77 205.46,328.77 203.47,328.77 201.47,328.77 199.48,328.77 197.49,328.78 195.59,328.78 193.68,328.78 191.78,328.78 189.88,328.78 187.98,328.78 186.08,328.78 184.17,328.78 182.27,328.78 180.37,328.78 178.47,328.79 176.57,328.79 174.66,328.79 172.76,328.79 170.86,328.79 168.96,328.79 167.05,328.79 165.15,328.79">